*Heading
** Job name: feets Model name: Model-1
** Generated by: Abaqus/CAE 2024
*Preprint, echo=NO, model=NO, history=NO, contact=NO
**
** PARTS
**
*Part, name=Part-1
*Node
      1,   264.128937,   41.0710678,         7.75
      2,   44.5622787,   196.686829,         7.75
      3,   271.200012,   197.199997,         7.75
      4,           0.,   221.199997,         7.75
      5,           0.,           0.,         7.75
      6,   312.600006,           0.,         7.75
      7,   312.600006,   221.199997,         7.75
      8,   50.3442726,   29.5278645,         7.75
      9,   261.200012,          34.,         7.75
     10,   264.128937,   26.9289322,         7.75
     11,   271.200012,          24.,         7.75
     12,   278.271057,   26.9289322,         7.75
     13,   281.200012,          34.,         7.75
     14,   278.271057,   41.0710678,         7.75
     15,   271.200012,          44.,         7.75
     16,   36.9278641,   196.144272,         7.75
     17,    31.913168,   190.362274,         7.75
     18,   32.4557266,   182.727859,         7.75
     19,   38.2377205,   177.713165,         7.75
     20,   45.8721352,   178.255722,         7.75
** ... 1037 like lines cut
*Element, type=S4R
1,  11,  12, 139,  10
2,   9,  10, 139,   1
3, 139,  12,  13,  14
4,  15,   1, 139,  14
5,   2,  16, 140,  22
6,  17,  18, 140,  16
7,  19,  20, 140,  18
8,  21,  22, 140,  20
11,  29,   3, 143,  28
12, 143,   3,  23, 142
13, 144, 142,  24,  25
14, 141, 143, 142, 144
15,  28, 143, 141,  27
16,  25,  26, 141, 144
  39,   47,   48,  179,  180
  40,  212,   53,   54,  211
  41,  208,  961,  169,  209
  42,   83,  184,  206,   82
  43,  100,  176,  183,   99
  44,  276,  281,  176,  263
** ... 970 like lines cut
*Element, type=S3
 9, 141,  26,  27
10,  23,  24, 142
17,  950,  275,  274
18,  147,    2,   22
19,  158,  138,  137
20,  971,  962,  153
21,  209,  169,  955
22,  275,  157,  272
23,  205,  278,  184
24,  274,  154,  950
25,  593,  442,  495
26,  714,  595,  545
27,  573,  509,  525
28,  985,  582,  739
29,  558,  701,  610
30,  840,  825,  802
31,  765,  858,  840
32, 1055,  920,  893
33,  943,  961,  351
34,  185,  946,  196
** ... 6 like lines cut
*Nset, nset=Set-1, generate
    1,  1057,     1
*Elset, elset=Set-1, generate
    1,  1016,     1
*Nset, nset=display_with_feet
  749,  750,  783,  784,  785,  786,  819,  821,  823,  824,  826,  830,  833,  847,  848,  849
  850,  851,  852,  854,  856,  866,  872,  873,  874,  875,  876,  878,  880,  887,  890,  892
  893,  894,  895,  897,  899,  901,  915,  917,  918,  919,  920,  923,  926,  930,  933,  934
 1042, 1049, 1050, 1051, 1052, 1053, 1054, 1055
** Section: mb_section
*Shell Section, elset=Set-1, material=apple_alu
15.5, 5
*End Part
**  
**
** ASSEMBLY
**
*Assembly, name=Assembly
**  
*Instance, name=Part-1-1, part=Part-1
*End Instance
**  
*Nset, nset=Set-1, instance=Part-1-1, generate
 4,  7,  1
*Nset, nset=Set-3, instance=Part-1-1
   4,   5,   6,   7,  30,  31,  32,  33,  34,  35,  36,  37,  38,  39,  40,  41
  42,  43,  44,  45,  46,  47,  48,  49,  50,  51,  52,  53,  54,  55,  56,  57
  58,  59,  60,  61,  62,  63,  64,  65,  66,  67,  68,  69,  70,  71,  72,  73
  74,  75,  76,  77,  78,  79,  80,  81,  82,  83,  84,  85,  86,  87,  88,  89
  90,  91,  92,  93,  94,  95,  96,  97,  98,  99, 100, 101, 102, 103, 104, 105
 106, 107, 108, 109, 110, 111, 112, 113, 114, 115, 116, 117, 118, 119, 120, 121
 122, 123, 124, 125, 126, 127, 128, 129, 130, 131
*Elset, elset=Set-3, instance=Part-1-1
  39,  40,  42,  43,  46,  48,  51,  53,  54,  55,  56,  57,  61,  62,  65,  66
  67,  69,  72,  73,  74,  75,  77,  80,  82,  83,  86,  88,  89,  91,  92,  94
  95,  96,  97,  99, 101, 102, 103, 106, 109, 112, 115, 116, 117, 118, 119, 121
 124, 125, 128, 129, 130, 132, 135, 137, 139, 142, 143, 144, 145, 147, 148, 149
 150, 152, 153, 154, 156, 157, 159, 160, 165, 171, 175, 185, 191, 192, 193, 197
 209, 216, 217, 218, 220, 222, 230, 240, 241, 242, 243, 244, 245, 248, 250, 256
 262, 267, 287, 288, 318, 336
*Nset, nset=Set-4, instance=Part-1-1
   4,   5,   6,   7,  30,  31,  32,  33,  34,  35,  36,  37,  38,  39,  40,  41
  42,  43,  44,  45,  46,  47,  48,  49,  50,  51,  52,  53,  54,  55,  56,  57
  58,  59,  60,  61,  62,  63,  64,  65,  66,  67,  68,  69,  70,  71,  72,  73
  74,  75,  76,  77,  78,  79,  80,  81,  82,  83,  84,  85,  86,  87,  88,  89
  90,  91,  92,  93,  94,  95,  96,  97,  98,  99, 100, 101, 102, 103, 104, 105
 106, 107, 108, 109, 110, 111, 112, 113, 114, 115, 116, 117, 118, 119, 120, 121
 122, 123, 124, 125, 126, 127, 128, 129, 130, 131
*Elset, elset=Set-4, instance=Part-1-1
  39,  40,  42,  43,  46,  48,  51,  53,  54,  55,  56,  57,  61,  62,  65,  66
  67,  69,  72,  73,  74,  75,  77,  80,  82,  83,  86,  88,  89,  91,  92,  94
  95,  96,  97,  99, 101, 102, 103, 106, 109, 112, 115, 116, 117, 118, 119, 121
 124, 125, 128, 129, 130, 132, 135, 137, 139, 142, 143, 144, 145, 147, 148, 149
 150, 152, 153, 154, 156, 157, 159, 160, 165, 171, 175, 185, 191, 192, 193, 197
 209, 216, 217, 218, 220, 222, 230, 240, 241, 242, 243, 244, 245, 248, 250, 256
 262, 267, 287, 288, 318, 336
*Nset, nset=Set-5, instance=Part-1-1
   4,   5,   6,   7,  30,  31,  32,  33,  34,  35,  36,  37,  38,  39,  40,  41
  42,  43,  44,  45,  46,  47,  48,  49,  50,  51,  52,  53,  54,  55,  56,  57
  58,  59,  60,  61,  62,  63,  64,  65,  66,  67,  68,  69,  70,  71,  72,  73
  74,  75,  76,  77,  78,  79,  80,  81,  82,  83,  84,  85,  86,  87,  88,  89
  90,  91,  92,  93,  94,  95,  96,  97,  98,  99, 100, 101, 102, 103, 104, 105
 106, 107, 108, 109, 110, 111, 112, 113, 114, 115, 116, 117, 118, 119, 120, 121
 122, 123, 124, 125, 126, 127, 128, 129, 130, 131
*Elset, elset=Set-5, instance=Part-1-1
  39,  40,  42,  43,  46,  48,  51,  53,  54,  55,  56,  57,  61,  62,  65,  66
  67,  69,  72,  73,  74,  75,  77,  80,  82,  83,  86,  88,  89,  91,  92,  94
  95,  96,  97,  99, 101, 102, 103, 106, 109, 112, 115, 116, 117, 118, 119, 121
 124, 125, 128, 129, 130, 132, 135, 137, 139, 142, 143, 144, 145, 147, 148, 149
 150, 152, 153, 154, 156, 157, 159, 160, 165, 171, 175, 185, 191, 192, 193, 197
 209, 216, 217, 218, 220, 222, 230, 240, 241, 242, 243, 244, 245, 248, 250, 256
 262, 267, 287, 288, 318, 336
*Nset, nset=Set-6, instance=Part-1-1
    1,    2,    3,    8,    9,   10,   11,   12,   13,   14,   15,   16,   17,   18,   19,   20
   21,   22,   23,   24,   25,   26,   27,   28,   29,  132,  133,  134,  135,  136,  137,  138
  139,  140,  141,  142,  143,  144, 1056, 1057
*Elset, elset=Set-6, instance=Part-1-1
    1,    2,    3,    4,    5,    6,    7,    8,    9,   10,   11,   12,   13,   14,   15,   16
 1011, 1012, 1013, 1014, 1015, 1016
*Elset, elset=_Surf-1_SPOS, internal, instance=Part-1-1, generate
    1,  1016,     1
*Surface, type=ELEMENT, name=Surf-1
_Surf-1_SPOS, SPOS
*Elset, elset=_Surf-2_SPOS, internal, instance=Part-1-1, generate
    1,  1016,     1
*Surface, type=ELEMENT, name=Surf-2
_Surf-2_SPOS, SPOS
*Elset, elset=_Surf-3_SPOS, internal, instance=Part-1-1, generate
    1,  1016,     1
*Surface, type=ELEMENT, name=Surf-3
_Surf-3_SPOS, SPOS
*Elset, elset=_Surf-4_SPOS, internal, instance=Part-1-1, generate
    1,  1016,     1
*Surface, type=ELEMENT, name=Surf-4
_Surf-4_SPOS, SPOS
*End Assembly
** 
** MATERIALS
** 
*Material, name=apple_alu
*Elastic
72000., 0.333
** ----------------------------------------------------------------
** 
** STEP: turbo
** 
*Step, name=turbo, nlgeom=NO, inc=200
*Static
0.01, 1., 1e-05, 0.01
** 
** BOUNDARY CONDITIONS
** 
** Name: feet_BC Type: Displacement/Rotation
*Boundary
Set-6, 1, 1
Set-6, 2, 2
Set-6, 3, 3
** 
** LOADS
** 
** Name: pressure   Type: Pressure
*Dsload
Surf-4, P, 2.
** 
** OUTPUT REQUESTS
** 
*Restart, write, frequency=0
** 
** FIELD OUTPUT: F-Output-2
** 
*Output, field, variable=PRESELECT
** 
** HISTORY OUTPUT: reaction_force
** 
*Output, history
*Node Output, nset=Set-6
RF3, 
** 
** HISTORY OUTPUT: displaysment_feet
** 
*Node Output, nset=Part-1-1.display_with_feet
U3, 
*End Step
