*Heading
** Job name: displaycment_history Model name: Model-1
** Generated by: Abaqus/CAE 2024
*Preprint, echo=NO, model=NO, history=NO, contact=NO
**
** PARTS
**
*Part, name=Part-1
*Node
      1,           0.,   221.199997,         7.75
      2,           0.,   211.145462,         7.75
      3,           0.,   201.090912,         7.75
      4,           0.,   191.036362,         7.75
      5,           0.,   180.981812,         7.75
      6,           0.,   170.927277,         7.75
      7,           0.,   160.872726,         7.75
      8,           0.,   150.818176,         7.75
      9,           0.,   140.763641,         7.75
     10,           0.,   130.709091,         7.75
     11,           0.,   120.654549,         7.75
     12,           0.,   110.599998,         7.75
     13,           0.,   100.545456,         7.75
     14,           0.,   90.4909058,         7.75
     15,           0.,   80.4363632,         7.75
     16,           0.,   70.3818207,         7.75
     17,           0.,   60.3272743,         7.75
     18,           0.,    50.272728,         7.75
     19,           0.,   40.2181816,         7.75
     20,           0.,   30.1636372,         7.75
** ... 716 like lines cut
*Element, type=S4R
  1,   1,   2,  25,  24
  2,   2,   3,  26,  25
  3,   3,   4,  27,  26
  4,   4,   5,  28,  27
  5,   5,   6,  29,  28
  6,   6,   7,  30,  29
  7,   7,   8,  31,  30
  8,   8,   9,  32,  31
  9,   9,  10,  33,  32
 10,  10,  11,  34,  33
 11,  11,  12,  35,  34
 12,  12,  13,  36,  35
 13,  13,  14,  37,  36
 14,  14,  15,  38,  37
 15,  15,  16,  39,  38
 16,  16,  17,  40,  39
 17,  17,  18,  41,  40
 18,  18,  19,  42,  41
 19,  19,  20,  43,  42
 20,  20,  21,  44,  43
** ... 662 like lines cut
*Nset, nset=Set-1, generate
   1,  736,    1
*Elset, elset=Set-1, generate
   1,  682,    1
*Nset, nset=displays
 239, 240, 241, 242, 243, 244, 245, 246, 247, 262, 263, 264, 265, 266, 267, 268
 269, 270, 285, 286, 287, 288, 289, 290, 291, 292, 293, 308, 309, 310, 311, 312
 313, 314, 315, 316, 331, 332, 333, 334, 335, 336, 337, 338, 339, 354, 355, 356
 357, 358, 359, 360, 361, 362, 377, 378, 379, 380, 381, 382, 383, 384, 385, 400
 401, 402, 403, 404, 405, 406, 407, 408, 423, 424, 425, 426, 427, 428, 429, 430
 431, 446, 447, 448, 449, 450, 451, 452, 453, 454, 469, 470, 471, 472, 473, 474
 475, 476, 477, 492, 493, 494, 495, 496, 497, 498, 499, 500, 515, 516, 517, 518
 519, 520, 521, 522, 523
** Section: mb_section
*Shell Section, elset=Set-1, material=apple_alu
15.5, 5
*End Part
**  
**
** ASSEMBLY
**
*Assembly, name=Assembly
**  
*Instance, name=Part-1-1, part=Part-1
*End Instance
**  
*Nset, nset=Set-1, instance=Part-1-1
   1,  23, 714, 736
*Nset, nset=Set-3, instance=Part-1-1
   1,   2,   3,   4,   5,   6,   7,   8,   9,  10,  11,  12,  13,  14,  15,  16
  17,  18,  19,  20,  21,  22,  23,  24,  46,  47,  69,  70,  92,  93, 115, 116
 138, 139, 161, 162, 184, 185, 207, 208, 230, 231, 253, 254, 276, 277, 299, 300
 322, 323, 345, 346, 368, 369, 391, 392, 414, 415, 437, 438, 460, 461, 483, 484
 506, 507, 529, 530, 552, 553, 575, 576, 598, 599, 621, 622, 644, 645, 667, 668
 690, 691, 713, 714, 715, 716, 717, 718, 719, 720, 721, 722, 723, 724, 725, 726
 727, 728, 729, 730, 731, 732, 733, 734, 735, 736
*Elset, elset=Set-3, instance=Part-1-1
   1,   2,   3,   4,   5,   6,   7,   8,   9,  10,  11,  12,  13,  14,  15,  16
  17,  18,  19,  20,  21,  22,  23,  44,  45,  66,  67,  88,  89, 110, 111, 132
 133, 154, 155, 176, 177, 198, 199, 220, 221, 242, 243, 264, 265, 286, 287, 308
 309, 330, 331, 352, 353, 374, 375, 396, 397, 418, 419, 440, 441, 462, 463, 484
 485, 506, 507, 528, 529, 550, 551, 572, 573, 594, 595, 616, 617, 638, 639, 660
 661, 662, 663, 664, 665, 666, 667, 668, 669, 670, 671, 672, 673, 674, 675, 676
 677, 678, 679, 680, 681, 682
*Nset, nset=Set-4, instance=Part-1-1
   1,   2,   3,   4,   5,   6,   7,   8,   9,  10,  11,  12,  13,  14,  15,  16
  17,  18,  19,  20,  21,  22,  23,  24,  46,  47,  69,  70,  92,  93, 115, 116
 138, 139, 161, 162, 184, 185, 207, 208, 230, 231, 253, 254, 276, 277, 299, 300
 322, 323, 345, 346, 368, 369, 391, 392, 414, 415, 437, 438, 460, 461, 483, 484
 506, 507, 529, 530, 552, 553, 575, 576, 598, 599, 621, 622, 644, 645, 667, 668
 690, 691, 713, 714, 715, 716, 717, 718, 719, 720, 721, 722, 723, 724, 725, 726
 727, 728, 729, 730, 731, 732, 733, 734, 735, 736
*Elset, elset=Set-4, instance=Part-1-1
   1,   2,   3,   4,   5,   6,   7,   8,   9,  10,  11,  12,  13,  14,  15,  16
  17,  18,  19,  20,  21,  22,  23,  44,  45,  66,  67,  88,  89, 110, 111, 132
 133, 154, 155, 176, 177, 198, 199, 220, 221, 242, 243, 264, 265, 286, 287, 308
 309, 330, 331, 352, 353, 374, 375, 396, 397, 418, 419, 440, 441, 462, 463, 484
 485, 506, 507, 528, 529, 550, 551, 572, 573, 594, 595, 616, 617, 638, 639, 660
 661, 662, 663, 664, 665, 666, 667, 668, 669, 670, 671, 672, 673, 674, 675, 676
 677, 678, 679, 680, 681, 682
*Nset, nset=Set-5, instance=Part-1-1
   1,   2,   3,   4,   5,   6,   7,   8,   9,  10,  11,  12,  13,  14,  15,  16
  17,  18,  19,  20,  21,  22,  23,  24,  46,  47,  69,  70,  92,  93, 115, 116
 138, 139, 161, 162, 184, 185, 207, 208, 230, 231, 253, 254, 276, 277, 299, 300
 322, 323, 345, 346, 368, 369, 391, 392, 414, 415, 437, 438, 460, 461, 483, 484
 506, 507, 529, 530, 552, 553, 575, 576, 598, 599, 621, 622, 644, 645, 667, 668
 690, 691, 713, 714, 715, 716, 717, 718, 719, 720, 721, 722, 723, 724, 725, 726
 727, 728, 729, 730, 731, 732, 733, 734, 735, 736
*Elset, elset=Set-5, instance=Part-1-1
   1,   2,   3,   4,   5,   6,   7,   8,   9,  10,  11,  12,  13,  14,  15,  16
  17,  18,  19,  20,  21,  22,  23,  44,  45,  66,  67,  88,  89, 110, 111, 132
 133, 154, 155, 176, 177, 198, 199, 220, 221, 242, 243, 264, 265, 286, 287, 308
 309, 330, 331, 352, 353, 374, 375, 396, 397, 418, 419, 440, 441, 462, 463, 484
 485, 506, 507, 528, 529, 550, 551, 572, 573, 594, 595, 616, 617, 638, 639, 660
 661, 662, 663, 664, 665, 666, 667, 668, 669, 670, 671, 672, 673, 674, 675, 676
 677, 678, 679, 680, 681, 682
*Elset, elset=_Surf-1_SPOS, internal, instance=Part-1-1, generate
   1,  682,    1
*Surface, type=ELEMENT, name=Surf-1
_Surf-1_SPOS, SPOS
*Elset, elset=_Surf-2_SPOS, internal, instance=Part-1-1, generate
   1,  682,    1
*Surface, type=ELEMENT, name=Surf-2
_Surf-2_SPOS, SPOS
*Elset, elset=_Surf-3_SPOS, internal, instance=Part-1-1, generate
   1,  682,    1
*Surface, type=ELEMENT, name=Surf-3
_Surf-3_SPOS, SPOS
*End Assembly
** 
** MATERIALS
** 
*Material, name=apple_alu
*Elastic
72000., 0.333
** ----------------------------------------------------------------
** 
** STEP: turbo
** 
*Step, name=turbo, nlgeom=NO, inc=200
*Static
0.01, 1., 1e-05, 0.01
** 
** BOUNDARY CONDITIONS
** 
** Name: ss_static Type: Displacement/Rotation
*Boundary
Set-5, 1, 1
Set-5, 2, 2
Set-5, 3, 3
** 
** LOADS
** 
** Name: s_ss_uniformed   Type: Pressure
*Dsload
Surf-3, P, 2.
** 
** OUTPUT REQUESTS
** 
*Restart, write, frequency=0
** 
** FIELD OUTPUT: F-Output-2
** 
*Output, field, variable=PRESELECT
** 
** HISTORY OUTPUT: history
** 
*Output, history
*Node Output, nset=Set-5
RF3, 
** 
** HISTORY OUTPUT: displays_his
** 
*Node Output, nset=Part-1-1.displays
U3, 
** 
** HISTORY OUTPUT: H-Output-2
** 
*Output, history, variable=PRESELECT
*End Step
