1

   Abaqus 2024                                  Date 25-feb-2024   Time 16:38:57
   For use by POLITECNICO DI MILANO under license from Dassault Systemes or its subsidiary.

                                                                                 
                                                                                 
 STEP    1     INCREMENT     1     STEP TIME    0.00    


                        S T E P       1     S T A T I C   A N A L Y S I S


                                                                                          

     AUTOMATIC TIME CONTROL WITH -
          A SUGGESTED INITIAL TIME INCREMENT OF                1.000E-02
          AND A TOTAL TIME PERIOD OF                            1.00    
          THE MINIMUM TIME INCREMENT ALLOWED IS                1.000E-05
          THE MAXIMUM TIME INCREMENT ALLOWED IS                1.000E-02

     LINEAR EQUATION SOLVER TYPE         DIRECT SPARSE

 CONVERGENCE TOLERANCE PARAMETERS FOR FORCE    
     CRITERION FOR RESIDUAL FORCE     FOR A NONLINEAR PROBLEM          5.000E-03
     CRITERION FOR DISP.    CORRECTION IN A NONLINEAR PROBLEM          1.000E-02
     INITIAL VALUE OF TIME AVERAGE FORCE                               1.000E-02
     AVERAGE FORCE     IS TIME AVERAGE FORCE    
     ALTERNATE CRIT. FOR RESIDUAL FORCE     FOR A NONLINEAR PROBLEM    2.000E-02
     CRITERION FOR ZERO FORCE     RELATIVE TO TIME AVRG. FORCE         1.000E-05
     CRITERION FOR RESIDUAL FORCE     WHEN THERE IS ZERO FLUX          1.000E-05
     CRITERION FOR DISP.    CORRECTION WHEN THERE IS ZERO FLUX         1.000E-03
     CRITERION FOR RESIDUAL FORCE     FOR A LINEAR INCREMENT           1.000E-08
     FIELD CONVERSION RATIO                                             1.00    
     CRITERION FOR ZERO FORCE     REL. TO TIME AVRG. MAX. FORCE        1.000E-05
     CRITERION FOR ZERO DISP.    RELATIVE TO CHARACTERISTIC LENGTH     1.000E-08

 CONVERGENCE TOLERANCE PARAMETERS FOR MOMENT   
     CRITERION FOR RESIDUAL MOMENT    FOR A NONLINEAR PROBLEM          5.000E-03
     CRITERION FOR ROTATION CORRECTION IN A NONLINEAR PROBLEM          1.000E-02
     INITIAL VALUE OF TIME AVERAGE MOMENT                              1.000E-02
     AVERAGE MOMENT    IS TIME AVERAGE MOMENT   
     ALTERNATE CRIT. FOR RESIDUAL MOMENT    FOR A NONLINEAR PROBLEM    2.000E-02
     CRITERION FOR ZERO MOMENT    RELATIVE TO TIME AVRG. MOMENT        1.000E-05
     CRITERION FOR RESIDUAL MOMENT    WHEN THERE IS ZERO FLUX          1.000E-05
     CRITERION FOR ROTATION CORRECTION WHEN THERE IS ZERO FLUX         1.000E-03
     CRITERION FOR RESIDUAL MOMENT    FOR A LINEAR INCREMENT           1.000E-08
     FIELD CONVERSION RATIO                                             1.00    
     CRITERION FOR ZERO MOMENT    REL. TO TIME AVRG. MAX. MOMENT       1.000E-05

     VOLUMETRIC STRAIN COMPATIBILITY TOLERANCE FOR HYBRID SOLIDS       1.000E-05
     AXIAL STRAIN COMPATIBILITY TOLERANCE FOR HYBRID BEAMS             1.000E-05
     TRANS. SHEAR STRAIN COMPATIBILITY TOLERANCE FOR HYBRID BEAMS      1.000E-05
     SOFT CONTACT CONSTRAINT COMPATIBILITY TOLERANCE FOR P>P0          5.000E-03
     SOFT CONTACT CONSTRAINT COMPATIBILITY TOLERANCE FOR P=0.0         0.100    
     CONTACT FORCE ERROR TOLERANCE FOR CONVERT SDI=YES                 1.00    
     DISPLACEMENT COMPATIBILITY TOLERANCE FOR DCOUP ELEMENTS           1.000E-05
     ROTATION COMPATIBILITY TOLERANCE FOR DCOUP ELEMENTS               1.000E-05

 EQUILIBRIUM WILL BE CHECKED FOR SEVERE DISCONTINUITY ITERATIONS

 TIME INCREMENTATION CONTROL PARAMETERS:
     FIRST EQUILIBRIUM ITERATION FOR CONSECUTIVE DIVERGENCE CHECK              4
     EQUILIBRIUM ITERATION AT WHICH LOG. CONVERGENCE RATE CHECK BEGINS         8
     EQUILIBRIUM ITERATION AFTER WHICH ALTERNATE RESIDUAL IS USED              9
     MAXIMUM EQUILIBRIUM ITERATIONS ALLOWED                                   16
     EQUILIBRIUM ITERATION COUNT FOR CUT-BACK IN NEXT INCREMENT               10
     MAXIMUM EQUILIB. ITERS IN TWO INCREMENTS FOR TIME INCREMENT INCREASE      4
     MAXIMUM ITERATIONS FOR SEVERE DISCONTINUITIES                            50
     MAXIMUM ATTEMPTS ALLOWED IN AN INCREMENT                                  5
     MAXIMUM DISCON. ITERS IN TWO INCREMENTS FOR TIME INCREMENT INCREASE      50
     MAXIMUM CONTACT AUGMENTATIONS FOR *SURFACE BEHAVIOR,AUGMENTED LAGRANGE   50
     CUT-BACK FACTOR AFTER DIVERGENCE                                 0.2500    
     CUT-BACK FACTOR FOR TOO SLOW CONVERGENCE                         0.5000    
     CUT-BACK FACTOR AFTER TOO MANY EQUILIBRIUM ITERATIONS            0.7500    
     CUT-BACK FACTOR AFTER TOO MANY SEVERE DISCONTINUITY ITERATIONS   0.2500    
     CUT-BACK FACTOR AFTER PROBLEMS IN ELEMENT ASSEMBLY               0.2500    
     INCREASE FACTOR AFTER TWO INCREMENTS THAT CONVERGE QUICKLY        1.500    
     MAX. TIME INCREMENT INCREASE FACTOR ALLOWED                       1.500    
     MAX. TIME INCREMENT INCREASE FACTOR ALLOWED (DYNAMICS)            1.250    
     MAX. TIME INCREMENT INCREASE FACTOR ALLOWED (DIFFUSION)           2.000    
     MINIMUM TIME INCREMENT RATIO FOR EXTRAPOLATION TO OCCUR          0.1000    
     MAX. RATIO OF TIME INCREMENT TO STABILITY LIMIT                   1.000    
     FRACTION OF STABILITY LIMIT FOR NEW TIME INCREMENT               0.9500    
     TIME INCREMENT INCREASE FACTOR BEFORE A TIME POINT                1.000    
     GLOBAL STABILIZATION CONTROL IS NOT USED

          PRINT OF INCREMENT NUMBER, TIME, ETC., EVERY    1  INCREMENTS

     THE MAXIMUM NUMBER OF INCREMENTS IN THIS STEP IS                     200

     LINEAR EXTRAPOLATION WILL BE USED

     CHARACTERISTIC ELEMENT LENGTH      4.99    

     DETAILS REGARDING ACTUAL SOLUTION WAVEFRONT REQUESTED

     DETAILED OUTPUT OF DIAGNOSTICS TO DATABASE REQUESTED

     PRINT OF INCREMENT NUMBER, TIME, ETC., TO THE MESSAGE FILE EVERY     1  INCREMENTS

     ELEMENT OPERATIONS WILL BE CARRIED OUT IN PARALLEL USING   4 THREADS ON 1 DOMAIN

     PARALLEL CONTACT TRACKING ENABLED


     COLLECTING MODEL CONSTRAINT INFORMATION FOR OVERCONSTRAINT CHECKS

     COLLECTING STEP CONSTRAINT INFORMATION FOR OVERCONSTRAINT CHECKS


  INCREMENT     1 STARTS. ATTEMPT NUMBER  1, TIME INCREMENT  1.000E-02
 
     INITIAL ELEMENT LOAD BALANCE
            DOMAIN    1     THREAD    NUMBER OF ELEMENTS
                              1            648
                              2            688
                              3            700
                              4            736
 
	SYMMETRIC NEW DIRECT SPARSE SOLVER RUNNING ON
 	1 HOST x 1 MPI RANK PER HOST x 4 THREADS PER RANK
        NUMBER OF EQUATIONS:  17280
        NUMBER OF RHS:        1
        NUMBER OF FLOPS:      6.321e+08
        SOLVER ELAPSED TIME:  72ms

               CONVERGENCE CHECKS FOR EQUILIBRIUM ITERATION     1


 AVERAGE FORCE                      9.796E-02   TIME AVG. FORCE       9.796E-02
 LARGEST SCALED RESIDUAL FORCE     -9.754E-12   AT NODE       1424   DOF  3
   INSTANCE: PART-1-1                                                                        
  CORRESPONDING RESIDUAL FORCE     -9.754E-12
 LARGEST INCREMENT OF DISP.        -1.451E-02   AT NODE       1463   DOF  3
   INSTANCE: PART-1-1                                                                        
 LARGEST CORRECTION TO DISP.       -1.451E-02   AT NODE       1463   DOF  3
   INSTANCE: PART-1-1                                                                        
          THE FORCE     EQUILIBRIUM RESPONSE WAS LINEAR IN THIS INCREMENT

 AVERAGE MOMENT                      59.5       TIME AVG. MOMENT       59.5    
 LARGEST SCALED RESIDUAL MOMENT     1.000E-11   AT NODE       1423   DOF  4
   INSTANCE: PART-1-1                                                                        
  CORRESPONDING RESIDUAL MOMENT     1.000E-11
 LARGEST INCREMENT OF ROTATION      2.106E-04   AT NODE       1441   DOF  4
   INSTANCE: PART-1-1                                                                        
 LARGEST CORRECTION TO ROTATION     2.106E-04   AT NODE       1441   DOF  4
   INSTANCE: PART-1-1                                                                        
          THE MOMENT    EQUILIBRIUM RESPONSE WAS LINEAR IN THIS INCREMENT

 ITERATION SUMMARY FOR THE INCREMENT:   1 TOTAL ITERATIONS, OF WHICH
   0 ARE SEVERE DISCONTINUITY ITERATIONS AND  1 ARE EQUILIBRIUM ITERATIONS.

 TIME INCREMENT COMPLETED  1.000E-02,  FRACTION OF STEP COMPLETED  1.000E-02
 STEP TIME COMPLETED       1.000E-02,  TOTAL TIME COMPLETED        1.000E-02


  INCREMENT     2 STARTS. ATTEMPT NUMBER  1, TIME INCREMENT  1.000E-02
 
	SYMMETRIC NEW DIRECT SPARSE SOLVER RUNNING ON
 	1 HOST x 1 MPI RANK PER HOST x 4 THREADS PER RANK
        NUMBER OF EQUATIONS:  17280
        NUMBER OF RHS:        1
        NUMBER OF FLOPS:      6.321e+08
        SOLVER ELAPSED TIME:  49ms

               CONVERGENCE CHECKS FOR EQUILIBRIUM ITERATION     1


 AVERAGE FORCE                       1.06       TIME AVG. FORCE       0.578    
 LARGEST SCALED RESIDUAL FORCE      5.016E-12   AT NODE       1775   DOF  3
   INSTANCE: PART-1-1                                                                        
  CORRESPONDING RESIDUAL FORCE      5.016E-12
 LARGEST INCREMENT OF DISP.        -1.451E-02   AT NODE       1463   DOF  3
   INSTANCE: PART-1-1                                                                        
 LARGEST CORRECTION TO DISP.        6.962E-15   AT NODE       1280   DOF  3
   INSTANCE: PART-1-1                                                                        
          THE FORCE     EQUILIBRIUM RESPONSE WAS LINEAR IN THIS INCREMENT

 AVERAGE MOMENT                      179.       TIME AVG. MOMENT       119.    
 LARGEST SCALED RESIDUAL MOMENT    -7.333E-12   AT NODE       1293   DOF  5
   INSTANCE: PART-1-1                                                                        
  CORRESPONDING RESIDUAL MOMENT    -7.333E-12
 LARGEST INCREMENT OF ROTATION      2.106E-04   AT NODE       1441   DOF  4
   INSTANCE: PART-1-1                                                                        
 LARGEST CORRECTION TO ROTATION    -1.078E-16   AT NODE       1351   DOF  4
   INSTANCE: PART-1-1                                                                        
          THE MOMENT    EQUILIBRIUM RESPONSE WAS LINEAR IN THIS INCREMENT

 ITERATION SUMMARY FOR THE INCREMENT:   1 TOTAL ITERATIONS, OF WHICH
   0 ARE SEVERE DISCONTINUITY ITERATIONS AND  1 ARE EQUILIBRIUM ITERATIONS.

 TIME INCREMENT COMPLETED  1.000E-02,  FRACTION OF STEP COMPLETED  2.000E-02
 STEP TIME COMPLETED       2.000E-02,  TOTAL TIME COMPLETED        2.000E-02


  INCREMENT     3 STARTS. ATTEMPT NUMBER  1, TIME INCREMENT  1.000E-02
 
	SYMMETRIC NEW DIRECT SPARSE SOLVER RUNNING ON
 	1 HOST x 1 MPI RANK PER HOST x 4 THREADS PER RANK
        NUMBER OF EQUATIONS:  17280
        NUMBER OF RHS:        1
        NUMBER OF FLOPS:      6.321e+08
        SOLVER ELAPSED TIME:  49ms

               CONVERGENCE CHECKS FOR EQUILIBRIUM ITERATION     1


 AVERAGE FORCE                       1.59       TIME AVG. FORCE       0.914    
 LARGEST SCALED RESIDUAL FORCE      8.795E-12   AT NODE       1103   DOF  3
   INSTANCE: PART-1-1                                                                        
  CORRESPONDING RESIDUAL FORCE      8.795E-12
 LARGEST INCREMENT OF DISP.        -1.451E-02   AT NODE       1463   DOF  3
   INSTANCE: PART-1-1                                                                        
 LARGEST CORRECTION TO DISP.       -3.478E-15   AT NODE       1280   DOF  3
   INSTANCE: PART-1-1                                                                        
          THE FORCE     EQUILIBRIUM RESPONSE WAS LINEAR IN THIS INCREMENT

 AVERAGE MOMENT                      268.       TIME AVG. MOMENT       169.    
 LARGEST SCALED RESIDUAL MOMENT     1.404E-11   AT NODE       1336   DOF  5
   INSTANCE: PART-1-1                                                                        
  CORRESPONDING RESIDUAL MOMENT     1.404E-11
 LARGEST INCREMENT OF ROTATION      2.106E-04   AT NODE       1441   DOF  4
   INSTANCE: PART-1-1                                                                        
 LARGEST CORRECTION TO ROTATION     5.382E-17   AT NODE       1351   DOF  4
   INSTANCE: PART-1-1                                                                        
          THE MOMENT    EQUILIBRIUM RESPONSE WAS LINEAR IN THIS INCREMENT

 ITERATION SUMMARY FOR THE INCREMENT:   1 TOTAL ITERATIONS, OF WHICH
   0 ARE SEVERE DISCONTINUITY ITERATIONS AND  1 ARE EQUILIBRIUM ITERATIONS.

 TIME INCREMENT COMPLETED  1.000E-02,  FRACTION OF STEP COMPLETED  3.000E-02
 STEP TIME COMPLETED       3.000E-02,  TOTAL TIME COMPLETED        3.000E-02


  INCREMENT     4 STARTS. ATTEMPT NUMBER  1, TIME INCREMENT  1.000E-02
 
	SYMMETRIC NEW DIRECT SPARSE SOLVER RUNNING ON
 	1 HOST x 1 MPI RANK PER HOST x 4 THREADS PER RANK
        NUMBER OF EQUATIONS:  17280
        NUMBER OF RHS:        1
        NUMBER OF FLOPS:      6.321e+08
        SOLVER ELAPSED TIME:  34ms

               CONVERGENCE CHECKS FOR EQUILIBRIUM ITERATION     1


 AVERAGE FORCE                       2.12       TIME AVG. FORCE        1.21    
 LARGEST SCALED RESIDUAL FORCE     -9.715E-12   AT NODE        781   DOF  3
   INSTANCE: PART-1-1                                                                        
  CORRESPONDING RESIDUAL FORCE     -9.715E-12
 LARGEST INCREMENT OF DISP.        -1.451E-02   AT NODE       1463   DOF  3
   INSTANCE: PART-1-1                                                                        
 LARGEST CORRECTION TO DISP.       -3.608E-17   AT NODE       1687   DOF  3
   INSTANCE: PART-1-1                                                                        
          THE FORCE     EQUILIBRIUM RESPONSE WAS LINEAR IN THIS INCREMENT

 AVERAGE MOMENT                      357.       TIME AVG. MOMENT       216.    
 LARGEST SCALED RESIDUAL MOMENT    -1.774E-11   AT NODE        971   DOF  5
   INSTANCE: PART-1-1                                                                        
  CORRESPONDING RESIDUAL MOMENT    -1.774E-11
 LARGEST INCREMENT OF ROTATION      2.106E-04   AT NODE       1441   DOF  4
   INSTANCE: PART-1-1                                                                        
 LARGEST CORRECTION TO ROTATION     1.145E-18   AT NODE       1336   DOF  5
   INSTANCE: PART-1-1                                                                        
          THE MOMENT    EQUILIBRIUM RESPONSE WAS LINEAR IN THIS INCREMENT

 ITERATION SUMMARY FOR THE INCREMENT:   1 TOTAL ITERATIONS, OF WHICH
   0 ARE SEVERE DISCONTINUITY ITERATIONS AND  1 ARE EQUILIBRIUM ITERATIONS.

 TIME INCREMENT COMPLETED  1.000E-02,  FRACTION OF STEP COMPLETED  4.000E-02
 STEP TIME COMPLETED       4.000E-02,  TOTAL TIME COMPLETED        4.000E-02


  INCREMENT     5 STARTS. ATTEMPT NUMBER  1, TIME INCREMENT  1.000E-02
 
	SYMMETRIC NEW DIRECT SPARSE SOLVER RUNNING ON
 	1 HOST x 1 MPI RANK PER HOST x 4 THREADS PER RANK
        NUMBER OF EQUATIONS:  17280
        NUMBER OF RHS:        1
        NUMBER OF FLOPS:      6.321e+08
        SOLVER ELAPSED TIME:  45ms

               CONVERGENCE CHECKS FOR EQUILIBRIUM ITERATION     1


 AVERAGE FORCE                       2.64       TIME AVG. FORCE        1.50    
 LARGEST SCALED RESIDUAL FORCE      1.875E-11   AT NODE       1057   DOF  3
   INSTANCE: PART-1-1                                                                        
  CORRESPONDING RESIDUAL FORCE      1.875E-11
 LARGEST INCREMENT OF DISP.        -1.451E-02   AT NODE       1463   DOF  3
   INSTANCE: PART-1-1                                                                        
 LARGEST CORRECTION TO DISP.        4.340E-17   AT NODE       1688   DOF  3
   INSTANCE: PART-1-1                                                                        
          THE FORCE     EQUILIBRIUM RESPONSE WAS LINEAR IN THIS INCREMENT

 AVERAGE MOMENT                      446.       TIME AVG. MOMENT       262.    
 LARGEST SCALED RESIDUAL MOMENT    -1.955E-11   AT NODE       1464   DOF  5
   INSTANCE: PART-1-1                                                                        
  CORRESPONDING RESIDUAL MOMENT    -1.955E-11
 LARGEST INCREMENT OF ROTATION      2.106E-04   AT NODE       1441   DOF  4
   INSTANCE: PART-1-1                                                                        
 LARGEST CORRECTION TO ROTATION     1.166E-18   AT NODE       1007   DOF  5
   INSTANCE: PART-1-1                                                                        
          THE MOMENT    EQUILIBRIUM RESPONSE WAS LINEAR IN THIS INCREMENT

 ITERATION SUMMARY FOR THE INCREMENT:   1 TOTAL ITERATIONS, OF WHICH
   0 ARE SEVERE DISCONTINUITY ITERATIONS AND  1 ARE EQUILIBRIUM ITERATIONS.

 TIME INCREMENT COMPLETED  1.000E-02,  FRACTION OF STEP COMPLETED  5.000E-02
 STEP TIME COMPLETED       5.000E-02,  TOTAL TIME COMPLETED        5.000E-02


  INCREMENT     6 STARTS. ATTEMPT NUMBER  1, TIME INCREMENT  1.000E-02
 
	SYMMETRIC NEW DIRECT SPARSE SOLVER RUNNING ON
 	1 HOST x 1 MPI RANK PER HOST x 4 THREADS PER RANK
        NUMBER OF EQUATIONS:  17280
        NUMBER OF RHS:        1
        NUMBER OF FLOPS:      6.321e+08
        SOLVER ELAPSED TIME:  40ms

               CONVERGENCE CHECKS FOR EQUILIBRIUM ITERATION     1


 AVERAGE FORCE                       3.17       TIME AVG. FORCE        1.78    
 LARGEST SCALED RESIDUAL FORCE      1.651E-11   AT NODE       1651   DOF  3
   INSTANCE: PART-1-1                                                                        
  CORRESPONDING RESIDUAL FORCE      1.651E-11
 LARGEST INCREMENT OF DISP.        -1.451E-02   AT NODE       1463   DOF  3
   INSTANCE: PART-1-1                                                                        
 LARGEST CORRECTION TO DISP.        6.107E-17   AT NODE       1915   DOF  3
   INSTANCE: PART-1-1                                                                        
          THE FORCE     EQUILIBRIUM RESPONSE WAS LINEAR IN THIS INCREMENT

 AVERAGE MOMENT                      536.       TIME AVG. MOMENT       308.    
 LARGEST SCALED RESIDUAL MOMENT    -2.251E-11   AT NODE       1515   DOF  5
   INSTANCE: PART-1-1                                                                        
  CORRESPONDING RESIDUAL MOMENT    -2.251E-11
 LARGEST INCREMENT OF ROTATION      2.106E-04   AT NODE       1441   DOF  4
   INSTANCE: PART-1-1                                                                        
 LARGEST CORRECTION TO ROTATION    -1.653E-18   AT NODE       1466   DOF  4
   INSTANCE: PART-1-1                                                                        
          THE MOMENT    EQUILIBRIUM RESPONSE WAS LINEAR IN THIS INCREMENT

 ITERATION SUMMARY FOR THE INCREMENT:   1 TOTAL ITERATIONS, OF WHICH
   0 ARE SEVERE DISCONTINUITY ITERATIONS AND  1 ARE EQUILIBRIUM ITERATIONS.

 TIME INCREMENT COMPLETED  1.000E-02,  FRACTION OF STEP COMPLETED  6.000E-02
 STEP TIME COMPLETED       6.000E-02,  TOTAL TIME COMPLETED        6.000E-02


  INCREMENT     7 STARTS. ATTEMPT NUMBER  1, TIME INCREMENT  1.000E-02
 
	SYMMETRIC NEW DIRECT SPARSE SOLVER RUNNING ON
 	1 HOST x 1 MPI RANK PER HOST x 4 THREADS PER RANK
        NUMBER OF EQUATIONS:  17280
        NUMBER OF RHS:        1
        NUMBER OF FLOPS:      6.321e+08
        SOLVER ELAPSED TIME:  41ms

               CONVERGENCE CHECKS FOR EQUILIBRIUM ITERATION     1


 AVERAGE FORCE                       3.70       TIME AVG. FORCE        2.05    
 LARGEST SCALED RESIDUAL FORCE      1.643E-11   AT NODE       1371   DOF  3
   INSTANCE: PART-1-1                                                                        
  CORRESPONDING RESIDUAL FORCE      1.643E-11
 LARGEST INCREMENT OF DISP.        -1.451E-02   AT NODE       1463   DOF  3
   INSTANCE: PART-1-1                                                                        
 LARGEST CORRECTION TO DISP.       -6.072E-17   AT NODE       1915   DOF  3
   INSTANCE: PART-1-1                                                                        
          THE FORCE     EQUILIBRIUM RESPONSE WAS LINEAR IN THIS INCREMENT

 AVERAGE MOMENT                      625.       TIME AVG. MOMENT       353.    
 LARGEST SCALED RESIDUAL MOMENT    -3.183E-11   AT NODE       1023   DOF  5
   INSTANCE: PART-1-1                                                                        
  CORRESPONDING RESIDUAL MOMENT    -3.183E-11
 LARGEST INCREMENT OF ROTATION      2.106E-04   AT NODE       1441   DOF  4
   INSTANCE: PART-1-1                                                                        
 LARGEST CORRECTION TO ROTATION    -2.054E-18   AT NODE       1688   DOF  5
   INSTANCE: PART-1-1                                                                        
          THE MOMENT    EQUILIBRIUM RESPONSE WAS LINEAR IN THIS INCREMENT

 ITERATION SUMMARY FOR THE INCREMENT:   1 TOTAL ITERATIONS, OF WHICH
   0 ARE SEVERE DISCONTINUITY ITERATIONS AND  1 ARE EQUILIBRIUM ITERATIONS.

 TIME INCREMENT COMPLETED  1.000E-02,  FRACTION OF STEP COMPLETED  7.000E-02
 STEP TIME COMPLETED       7.000E-02,  TOTAL TIME COMPLETED        7.000E-02


  INCREMENT     8 STARTS. ATTEMPT NUMBER  1, TIME INCREMENT  1.000E-02
 
	SYMMETRIC NEW DIRECT SPARSE SOLVER RUNNING ON
 	1 HOST x 1 MPI RANK PER HOST x 4 THREADS PER RANK
        NUMBER OF EQUATIONS:  17280
        NUMBER OF RHS:        1
        NUMBER OF FLOPS:      6.321e+08
        SOLVER ELAPSED TIME:  56ms

               CONVERGENCE CHECKS FOR EQUILIBRIUM ITERATION     1


 AVERAGE FORCE                       4.23       TIME AVG. FORCE        2.33    
 LARGEST SCALED RESIDUAL FORCE      1.729E-11   AT NODE       1812   DOF  3
   INSTANCE: PART-1-1                                                                        
  CORRESPONDING RESIDUAL FORCE      1.729E-11
 LARGEST INCREMENT OF DISP.        -1.451E-02   AT NODE       1463   DOF  3
   INSTANCE: PART-1-1                                                                        
 LARGEST CORRECTION TO DISP.        5.870E-17   AT NODE       1371   DOF  3
   INSTANCE: PART-1-1                                                                        
          THE FORCE     EQUILIBRIUM RESPONSE WAS LINEAR IN THIS INCREMENT

 AVERAGE MOMENT                      714.       TIME AVG. MOMENT       398.    
 LARGEST SCALED RESIDUAL MOMENT    -3.297E-11   AT NODE        794   DOF  5
   INSTANCE: PART-1-1                                                                        
  CORRESPONDING RESIDUAL MOMENT    -3.297E-11
 LARGEST INCREMENT OF ROTATION      2.106E-04   AT NODE       1441   DOF  4
   INSTANCE: PART-1-1                                                                        
 LARGEST CORRECTION TO ROTATION     2.162E-18   AT NODE       1642   DOF  5
   INSTANCE: PART-1-1                                                                        
          THE MOMENT    EQUILIBRIUM RESPONSE WAS LINEAR IN THIS INCREMENT

 ITERATION SUMMARY FOR THE INCREMENT:   1 TOTAL ITERATIONS, OF WHICH
   0 ARE SEVERE DISCONTINUITY ITERATIONS AND  1 ARE EQUILIBRIUM ITERATIONS.

 TIME INCREMENT COMPLETED  1.000E-02,  FRACTION OF STEP COMPLETED  8.000E-02
 STEP TIME COMPLETED       8.000E-02,  TOTAL TIME COMPLETED        8.000E-02


  INCREMENT     9 STARTS. ATTEMPT NUMBER  1, TIME INCREMENT  1.000E-02
 
	SYMMETRIC NEW DIRECT SPARSE SOLVER RUNNING ON
 	1 HOST x 1 MPI RANK PER HOST x 4 THREADS PER RANK
        NUMBER OF EQUATIONS:  17280
        NUMBER OF RHS:        1
        NUMBER OF FLOPS:      6.321e+08
        SOLVER ELAPSED TIME:  54ms

               CONVERGENCE CHECKS FOR EQUILIBRIUM ITERATION     1


 AVERAGE FORCE                       4.76       TIME AVG. FORCE        2.60    
 LARGEST SCALED RESIDUAL FORCE     -2.782E-11   AT NODE       1192   DOF  3
   INSTANCE: PART-1-1                                                                        
  CORRESPONDING RESIDUAL FORCE     -2.782E-11
 LARGEST INCREMENT OF DISP.        -1.451E-02   AT NODE       1463   DOF  3
   INSTANCE: PART-1-1                                                                        
 LARGEST CORRECTION TO DISP.        5.714E-17   AT NODE       1097   DOF  3
   INSTANCE: PART-1-1                                                                        
          THE FORCE     EQUILIBRIUM RESPONSE WAS LINEAR IN THIS INCREMENT

 AVERAGE MOMENT                      804.       TIME AVG. MOMENT       443.    
 LARGEST SCALED RESIDUAL MOMENT    -3.820E-11   AT NODE       1556   DOF  5
   INSTANCE: PART-1-1                                                                        
  CORRESPONDING RESIDUAL MOMENT    -3.820E-11
 LARGEST INCREMENT OF ROTATION      2.106E-04   AT NODE       1441   DOF  4
   INSTANCE: PART-1-1                                                                        
 LARGEST CORRECTION TO ROTATION    -2.303E-18   AT NODE       1002   DOF  5
   INSTANCE: PART-1-1                                                                        
          THE MOMENT    EQUILIBRIUM RESPONSE WAS LINEAR IN THIS INCREMENT

 ITERATION SUMMARY FOR THE INCREMENT:   1 TOTAL ITERATIONS, OF WHICH
   0 ARE SEVERE DISCONTINUITY ITERATIONS AND  1 ARE EQUILIBRIUM ITERATIONS.

 TIME INCREMENT COMPLETED  1.000E-02,  FRACTION OF STEP COMPLETED  9.000E-02
 STEP TIME COMPLETED       9.000E-02,  TOTAL TIME COMPLETED        9.000E-02


  INCREMENT    10 STARTS. ATTEMPT NUMBER  1, TIME INCREMENT  1.000E-02
 
	SYMMETRIC NEW DIRECT SPARSE SOLVER RUNNING ON
 	1 HOST x 1 MPI RANK PER HOST x 4 THREADS PER RANK
        NUMBER OF EQUATIONS:  17280
        NUMBER OF RHS:        1
        NUMBER OF FLOPS:      6.321e+08
        SOLVER ELAPSED TIME:  46ms

               CONVERGENCE CHECKS FOR EQUILIBRIUM ITERATION     1


 AVERAGE FORCE                       5.29       TIME AVG. FORCE        2.87    
 LARGEST SCALED RESIDUAL FORCE     -3.421E-11   AT NODE       1638   DOF  3
   INSTANCE: PART-1-1                                                                        
  CORRESPONDING RESIDUAL FORCE     -3.421E-11
 LARGEST INCREMENT OF DISP.        -1.451E-02   AT NODE       1463   DOF  3
   INSTANCE: PART-1-1                                                                        
 LARGEST CORRECTION TO DISP.        7.848E-17   AT NODE       1373   DOF  3
   INSTANCE: PART-1-1                                                                        
          THE FORCE     EQUILIBRIUM RESPONSE WAS LINEAR IN THIS INCREMENT

 AVERAGE MOMENT                      893.       TIME AVG. MOMENT       488.    
 LARGEST SCALED RESIDUAL MOMENT     5.275E-11   AT NODE       1691   DOF  5
   INSTANCE: PART-1-1                                                                        
  CORRESPONDING RESIDUAL MOMENT     5.275E-11
 LARGEST INCREMENT OF ROTATION      2.106E-04   AT NODE       1441   DOF  4
   INSTANCE: PART-1-1                                                                        
 LARGEST CORRECTION TO ROTATION    -3.199E-18   AT NODE       1327   DOF  4
   INSTANCE: PART-1-1                                                                        
          THE MOMENT    EQUILIBRIUM RESPONSE WAS LINEAR IN THIS INCREMENT

 ITERATION SUMMARY FOR THE INCREMENT:   1 TOTAL ITERATIONS, OF WHICH
   0 ARE SEVERE DISCONTINUITY ITERATIONS AND  1 ARE EQUILIBRIUM ITERATIONS.

 TIME INCREMENT COMPLETED  1.000E-02,  FRACTION OF STEP COMPLETED  0.100    
 STEP TIME COMPLETED       0.100    ,  TOTAL TIME COMPLETED        0.100    


  INCREMENT    11 STARTS. ATTEMPT NUMBER  1, TIME INCREMENT  1.000E-02
 
	SYMMETRIC NEW DIRECT SPARSE SOLVER RUNNING ON
 	1 HOST x 1 MPI RANK PER HOST x 4 THREADS PER RANK
        NUMBER OF EQUATIONS:  17280
        NUMBER OF RHS:        1
        NUMBER OF FLOPS:      6.321e+08
        SOLVER ELAPSED TIME:  38ms

               CONVERGENCE CHECKS FOR EQUILIBRIUM ITERATION     1


 AVERAGE FORCE                       5.82       TIME AVG. FORCE        3.13    
 LARGEST SCALED RESIDUAL FORCE      3.498E-11   AT NODE       1381   DOF  3
   INSTANCE: PART-1-1                                                                        
  CORRESPONDING RESIDUAL FORCE      3.498E-11
 LARGEST INCREMENT OF DISP.        -1.451E-02   AT NODE       1463   DOF  3
   INSTANCE: PART-1-1                                                                        
 LARGEST CORRECTION TO DISP.        9.830E-17   AT NODE       1682   DOF  3
   INSTANCE: PART-1-1                                                                        
          THE FORCE     EQUILIBRIUM RESPONSE WAS LINEAR IN THIS INCREMENT

 AVERAGE MOMENT                      982.       TIME AVG. MOMENT       533.    
 LARGEST SCALED RESIDUAL MOMENT    -5.116E-11   AT NODE       1427   DOF  5
   INSTANCE: PART-1-1                                                                        
  CORRESPONDING RESIDUAL MOMENT    -5.116E-11
 LARGEST INCREMENT OF ROTATION      2.106E-04   AT NODE       1441   DOF  4
   INSTANCE: PART-1-1                                                                        
 LARGEST CORRECTION TO ROTATION    -4.039E-18   AT NODE       1103   DOF  5
   INSTANCE: PART-1-1                                                                        
          THE MOMENT    EQUILIBRIUM RESPONSE WAS LINEAR IN THIS INCREMENT

 ITERATION SUMMARY FOR THE INCREMENT:   1 TOTAL ITERATIONS, OF WHICH
   0 ARE SEVERE DISCONTINUITY ITERATIONS AND  1 ARE EQUILIBRIUM ITERATIONS.

 TIME INCREMENT COMPLETED  1.000E-02,  FRACTION OF STEP COMPLETED  0.110    
 STEP TIME COMPLETED       0.110    ,  TOTAL TIME COMPLETED        0.110    


  INCREMENT    12 STARTS. ATTEMPT NUMBER  1, TIME INCREMENT  1.000E-02
 
	SYMMETRIC NEW DIRECT SPARSE SOLVER RUNNING ON
 	1 HOST x 1 MPI RANK PER HOST x 4 THREADS PER RANK
        NUMBER OF EQUATIONS:  17280
        NUMBER OF RHS:        1
        NUMBER OF FLOPS:      6.321e+08
        SOLVER ELAPSED TIME:  47ms

               CONVERGENCE CHECKS FOR EQUILIBRIUM ITERATION     1


 AVERAGE FORCE                       6.35       TIME AVG. FORCE        3.40    
 LARGEST SCALED RESIDUAL FORCE     -3.528E-11   AT NODE       1060   DOF  3
   INSTANCE: PART-1-1                                                                        
  CORRESPONDING RESIDUAL FORCE     -3.528E-11
 LARGEST INCREMENT OF DISP.        -1.451E-02   AT NODE       1463   DOF  3
   INSTANCE: PART-1-1                                                                        
 LARGEST CORRECTION TO DISP.       -1.452E-16   AT NODE       1015   DOF  3
   INSTANCE: PART-1-1                                                                        
          THE FORCE     EQUILIBRIUM RESPONSE WAS LINEAR IN THIS INCREMENT

 AVERAGE MOMENT                     1.072E+03   TIME AVG. MOMENT       578.    
 LARGEST SCALED RESIDUAL MOMENT     6.776E-11   AT NODE       1109   DOF  5
   INSTANCE: PART-1-1                                                                        
  CORRESPONDING RESIDUAL MOMENT     6.776E-11
 LARGEST INCREMENT OF ROTATION      2.106E-04   AT NODE       1441   DOF  4
   INSTANCE: PART-1-1                                                                        
 LARGEST CORRECTION TO ROTATION     4.310E-18   AT NODE       1014   DOF  5
   INSTANCE: PART-1-1                                                                        
          THE MOMENT    EQUILIBRIUM RESPONSE WAS LINEAR IN THIS INCREMENT

 ITERATION SUMMARY FOR THE INCREMENT:   1 TOTAL ITERATIONS, OF WHICH
   0 ARE SEVERE DISCONTINUITY ITERATIONS AND  1 ARE EQUILIBRIUM ITERATIONS.

 TIME INCREMENT COMPLETED  1.000E-02,  FRACTION OF STEP COMPLETED  0.120    
 STEP TIME COMPLETED       0.120    ,  TOTAL TIME COMPLETED        0.120    


  INCREMENT    13 STARTS. ATTEMPT NUMBER  1, TIME INCREMENT  1.000E-02
 
	SYMMETRIC NEW DIRECT SPARSE SOLVER RUNNING ON
 	1 HOST x 1 MPI RANK PER HOST x 4 THREADS PER RANK
        NUMBER OF EQUATIONS:  17280
        NUMBER OF RHS:        1
        NUMBER OF FLOPS:      6.321e+08
        SOLVER ELAPSED TIME:  49ms

               CONVERGENCE CHECKS FOR EQUILIBRIUM ITERATION     1


 AVERAGE FORCE                       6.88       TIME AVG. FORCE        3.67    
 LARGEST SCALED RESIDUAL FORCE      3.688E-11   AT NODE       1200   DOF  3
   INSTANCE: PART-1-1                                                                        
  CORRESPONDING RESIDUAL FORCE      3.688E-11
 LARGEST INCREMENT OF DISP.        -1.451E-02   AT NODE       1463   DOF  3
   INSTANCE: PART-1-1                                                                        
 LARGEST CORRECTION TO DISP.        1.054E-16   AT NODE       1869   DOF  3
   INSTANCE: PART-1-1                                                                        
          THE FORCE     EQUILIBRIUM RESPONSE WAS LINEAR IN THIS INCREMENT

 AVERAGE MOMENT                     1.161E+03   TIME AVG. MOMENT       623.    
 LARGEST SCALED RESIDUAL MOMENT     5.230E-11   AT NODE       1593   DOF  5
   INSTANCE: PART-1-1                                                                        
  CORRESPONDING RESIDUAL MOMENT     5.230E-11
 LARGEST INCREMENT OF ROTATION      2.106E-04   AT NODE       1441   DOF  4
   INSTANCE: PART-1-1                                                                        
 LARGEST CORRECTION TO ROTATION     3.135E-18   AT NODE        972   DOF  5
   INSTANCE: PART-1-1                                                                        
          THE MOMENT    EQUILIBRIUM RESPONSE WAS LINEAR IN THIS INCREMENT

 ITERATION SUMMARY FOR THE INCREMENT:   1 TOTAL ITERATIONS, OF WHICH
   0 ARE SEVERE DISCONTINUITY ITERATIONS AND  1 ARE EQUILIBRIUM ITERATIONS.

 TIME INCREMENT COMPLETED  1.000E-02,  FRACTION OF STEP COMPLETED  0.130    
 STEP TIME COMPLETED       0.130    ,  TOTAL TIME COMPLETED        0.130    


  INCREMENT    14 STARTS. ATTEMPT NUMBER  1, TIME INCREMENT  1.000E-02
 
	SYMMETRIC NEW DIRECT SPARSE SOLVER RUNNING ON
 	1 HOST x 1 MPI RANK PER HOST x 4 THREADS PER RANK
        NUMBER OF EQUATIONS:  17280
        NUMBER OF RHS:        1
        NUMBER OF FLOPS:      6.321e+08
        SOLVER ELAPSED TIME:  47ms

               CONVERGENCE CHECKS FOR EQUILIBRIUM ITERATION     1


 AVERAGE FORCE                       7.41       TIME AVG. FORCE        3.94    
 LARGEST SCALED RESIDUAL FORCE     -3.554E-11   AT NODE       1965   DOF  3
   INSTANCE: PART-1-1                                                                        
  CORRESPONDING RESIDUAL FORCE     -3.554E-11
 LARGEST INCREMENT OF DISP.        -1.451E-02   AT NODE       1463   DOF  3
   INSTANCE: PART-1-1                                                                        
 LARGEST CORRECTION TO DISP.       -1.214E-16   AT NODE       1905   DOF  3
   INSTANCE: PART-1-1                                                                        
          THE FORCE     EQUILIBRIUM RESPONSE WAS LINEAR IN THIS INCREMENT

 AVERAGE MOMENT                     1.250E+03   TIME AVG. MOMENT       668.    
 LARGEST SCALED RESIDUAL MOMENT    -5.616E-11   AT NODE       1950   DOF  5
   INSTANCE: PART-1-1                                                                        
  CORRESPONDING RESIDUAL MOMENT    -5.616E-11
 LARGEST INCREMENT OF ROTATION      2.106E-04   AT NODE       1441   DOF  4
   INSTANCE: PART-1-1                                                                        
 LARGEST CORRECTION TO ROTATION     3.382E-18   AT NODE       1782   DOF  5
   INSTANCE: PART-1-1                                                                        
          THE MOMENT    EQUILIBRIUM RESPONSE WAS LINEAR IN THIS INCREMENT

 ITERATION SUMMARY FOR THE INCREMENT:   1 TOTAL ITERATIONS, OF WHICH
   0 ARE SEVERE DISCONTINUITY ITERATIONS AND  1 ARE EQUILIBRIUM ITERATIONS.

 TIME INCREMENT COMPLETED  1.000E-02,  FRACTION OF STEP COMPLETED  0.140    
 STEP TIME COMPLETED       0.140    ,  TOTAL TIME COMPLETED        0.140    


  INCREMENT    15 STARTS. ATTEMPT NUMBER  1, TIME INCREMENT  1.000E-02
 
	SYMMETRIC NEW DIRECT SPARSE SOLVER RUNNING ON
 	1 HOST x 1 MPI RANK PER HOST x 4 THREADS PER RANK
        NUMBER OF EQUATIONS:  17280
        NUMBER OF RHS:        1
        NUMBER OF FLOPS:      6.321e+08
        SOLVER ELAPSED TIME:  47ms

               CONVERGENCE CHECKS FOR EQUILIBRIUM ITERATION     1


 AVERAGE FORCE                       7.93       TIME AVG. FORCE        4.20    
 LARGEST SCALED RESIDUAL FORCE     -3.778E-11   AT NODE       1049   DOF  3
   INSTANCE: PART-1-1                                                                        
  CORRESPONDING RESIDUAL FORCE     -3.778E-11
 LARGEST INCREMENT OF DISP.        -1.451E-02   AT NODE       1463   DOF  3
   INSTANCE: PART-1-1                                                                        
 LARGEST CORRECTION TO DISP.       -1.452E-16   AT NODE       1052   DOF  3
   INSTANCE: PART-1-1                                                                        
          THE FORCE     EQUILIBRIUM RESPONSE WAS LINEAR IN THIS INCREMENT

 AVERAGE MOMENT                     1.339E+03   TIME AVG. MOMENT       712.    
 LARGEST SCALED RESIDUAL MOMENT    -5.548E-11   AT NODE       1364   DOF  5
   INSTANCE: PART-1-1                                                                        
  CORRESPONDING RESIDUAL MOMENT    -5.548E-11
 LARGEST INCREMENT OF ROTATION      2.106E-04   AT NODE       1441   DOF  4
   INSTANCE: PART-1-1                                                                        
 LARGEST CORRECTION TO ROTATION    -4.359E-18   AT NODE       1682   DOF  4
   INSTANCE: PART-1-1                                                                        
          THE MOMENT    EQUILIBRIUM RESPONSE WAS LINEAR IN THIS INCREMENT

 ITERATION SUMMARY FOR THE INCREMENT:   1 TOTAL ITERATIONS, OF WHICH
   0 ARE SEVERE DISCONTINUITY ITERATIONS AND  1 ARE EQUILIBRIUM ITERATIONS.

 TIME INCREMENT COMPLETED  1.000E-02,  FRACTION OF STEP COMPLETED  0.150    
 STEP TIME COMPLETED       0.150    ,  TOTAL TIME COMPLETED        0.150    


  INCREMENT    16 STARTS. ATTEMPT NUMBER  1, TIME INCREMENT  1.000E-02
 
	SYMMETRIC NEW DIRECT SPARSE SOLVER RUNNING ON
 	1 HOST x 1 MPI RANK PER HOST x 4 THREADS PER RANK
        NUMBER OF EQUATIONS:  17280
        NUMBER OF RHS:        1
        NUMBER OF FLOPS:      6.321e+08
        SOLVER ELAPSED TIME:  48ms

               CONVERGENCE CHECKS FOR EQUILIBRIUM ITERATION     1


 AVERAGE FORCE                       8.46       TIME AVG. FORCE        4.47    
 LARGEST SCALED RESIDUAL FORCE     -3.171E-11   AT NODE       1404   DOF  3
   INSTANCE: PART-1-1                                                                        
  CORRESPONDING RESIDUAL FORCE     -3.171E-11
 LARGEST INCREMENT OF DISP.        -1.451E-02   AT NODE       1463   DOF  3
   INSTANCE: PART-1-1                                                                        
 LARGEST CORRECTION TO DISP.        1.799E-16   AT NODE        873   DOF  3
   INSTANCE: PART-1-1                                                                        
          THE FORCE     EQUILIBRIUM RESPONSE WAS LINEAR IN THIS INCREMENT

 AVERAGE MOMENT                     1.429E+03   TIME AVG. MOMENT       757.    
 LARGEST SCALED RESIDUAL MOMENT     4.889E-11   AT NODE        866   DOF  5
   INSTANCE: PART-1-1                                                                        
  CORRESPONDING RESIDUAL MOMENT     4.889E-11
 LARGEST INCREMENT OF ROTATION      2.106E-04   AT NODE       1441   DOF  4
   INSTANCE: PART-1-1                                                                        
 LARGEST CORRECTION TO ROTATION    -4.242E-18   AT NODE       1550   DOF  5
   INSTANCE: PART-1-1                                                                        
          THE MOMENT    EQUILIBRIUM RESPONSE WAS LINEAR IN THIS INCREMENT

 ITERATION SUMMARY FOR THE INCREMENT:   1 TOTAL ITERATIONS, OF WHICH
   0 ARE SEVERE DISCONTINUITY ITERATIONS AND  1 ARE EQUILIBRIUM ITERATIONS.

 TIME INCREMENT COMPLETED  1.000E-02,  FRACTION OF STEP COMPLETED  0.160    
 STEP TIME COMPLETED       0.160    ,  TOTAL TIME COMPLETED        0.160    


  INCREMENT    17 STARTS. ATTEMPT NUMBER  1, TIME INCREMENT  1.000E-02
 
	SYMMETRIC NEW DIRECT SPARSE SOLVER RUNNING ON
 	1 HOST x 1 MPI RANK PER HOST x 4 THREADS PER RANK
        NUMBER OF EQUATIONS:  17280
        NUMBER OF RHS:        1
        NUMBER OF FLOPS:      6.321e+08
        SOLVER ELAPSED TIME:  49ms

               CONVERGENCE CHECKS FOR EQUILIBRIUM ITERATION     1


 AVERAGE FORCE                       8.99       TIME AVG. FORCE        4.74    
 LARGEST SCALED RESIDUAL FORCE      3.813E-11   AT NODE       2190   DOF  3
   INSTANCE: PART-1-1                                                                        
  CORRESPONDING RESIDUAL FORCE      3.813E-11
 LARGEST INCREMENT OF DISP.        -1.451E-02   AT NODE       1463   DOF  3
   INSTANCE: PART-1-1                                                                        
 LARGEST CORRECTION TO DISP.       -1.282E-16   AT NODE       1679   DOF  3
   INSTANCE: PART-1-1                                                                        
          THE FORCE     EQUILIBRIUM RESPONSE WAS LINEAR IN THIS INCREMENT

 AVERAGE MOMENT                     1.518E+03   TIME AVG. MOMENT       802.    
 LARGEST SCALED RESIDUAL MOMENT     6.617E-11   AT NODE       1227   DOF  5
   INSTANCE: PART-1-1                                                                        
  CORRESPONDING RESIDUAL MOMENT     6.617E-11
 LARGEST INCREMENT OF ROTATION      2.106E-04   AT NODE       1441   DOF  4
   INSTANCE: PART-1-1                                                                        
 LARGEST CORRECTION TO ROTATION     3.754E-18   AT NODE       1096   DOF  5
   INSTANCE: PART-1-1                                                                        
          THE MOMENT    EQUILIBRIUM RESPONSE WAS LINEAR IN THIS INCREMENT

 ITERATION SUMMARY FOR THE INCREMENT:   1 TOTAL ITERATIONS, OF WHICH
   0 ARE SEVERE DISCONTINUITY ITERATIONS AND  1 ARE EQUILIBRIUM ITERATIONS.

 TIME INCREMENT COMPLETED  1.000E-02,  FRACTION OF STEP COMPLETED  0.170    
 STEP TIME COMPLETED       0.170    ,  TOTAL TIME COMPLETED        0.170    


  INCREMENT    18 STARTS. ATTEMPT NUMBER  1, TIME INCREMENT  1.000E-02
 
	SYMMETRIC NEW DIRECT SPARSE SOLVER RUNNING ON
 	1 HOST x 1 MPI RANK PER HOST x 4 THREADS PER RANK
        NUMBER OF EQUATIONS:  17280
        NUMBER OF RHS:        1
        NUMBER OF FLOPS:      6.321e+08
        SOLVER ELAPSED TIME:  51ms

               CONVERGENCE CHECKS FOR EQUILIBRIUM ITERATION     1


 AVERAGE FORCE                       9.52       TIME AVG. FORCE        5.00    
 LARGEST SCALED RESIDUAL FORCE      5.916E-11   AT NODE       1416   DOF  3
   INSTANCE: PART-1-1                                                                        
  CORRESPONDING RESIDUAL FORCE      5.916E-11
 LARGEST INCREMENT OF DISP.        -1.451E-02   AT NODE       1463   DOF  3
   INSTANCE: PART-1-1                                                                        
 LARGEST CORRECTION TO DISP.       -1.529E-16   AT NODE       1558   DOF  3
   INSTANCE: PART-1-1                                                                        
          THE FORCE     EQUILIBRIUM RESPONSE WAS LINEAR IN THIS INCREMENT

 AVERAGE MOMENT                     1.607E+03   TIME AVG. MOMENT       847.    
 LARGEST SCALED RESIDUAL MOMENT    -7.367E-11   AT NODE       1735   DOF  5
   INSTANCE: PART-1-1                                                                        
  CORRESPONDING RESIDUAL MOMENT    -7.367E-11
 LARGEST INCREMENT OF ROTATION      2.106E-04   AT NODE       1441   DOF  4
   INSTANCE: PART-1-1                                                                        
 LARGEST CORRECTION TO ROTATION    -4.322E-18   AT NODE       1415   DOF  5
   INSTANCE: PART-1-1                                                                        
          THE MOMENT    EQUILIBRIUM RESPONSE WAS LINEAR IN THIS INCREMENT

 ITERATION SUMMARY FOR THE INCREMENT:   1 TOTAL ITERATIONS, OF WHICH
   0 ARE SEVERE DISCONTINUITY ITERATIONS AND  1 ARE EQUILIBRIUM ITERATIONS.

 TIME INCREMENT COMPLETED  1.000E-02,  FRACTION OF STEP COMPLETED  0.180    
 STEP TIME COMPLETED       0.180    ,  TOTAL TIME COMPLETED        0.180    


  INCREMENT    19 STARTS. ATTEMPT NUMBER  1, TIME INCREMENT  1.000E-02
 
	SYMMETRIC NEW DIRECT SPARSE SOLVER RUNNING ON
 	1 HOST x 1 MPI RANK PER HOST x 4 THREADS PER RANK
        NUMBER OF EQUATIONS:  17280
        NUMBER OF RHS:        1
        NUMBER OF FLOPS:      6.321e+08
        SOLVER ELAPSED TIME:  49ms

               CONVERGENCE CHECKS FOR EQUILIBRIUM ITERATION     1


 AVERAGE FORCE                       10.1       TIME AVG. FORCE        5.27    
 LARGEST SCALED RESIDUAL FORCE     -7.396E-11   AT NODE       1777   DOF  3
   INSTANCE: PART-1-1                                                                        
  CORRESPONDING RESIDUAL FORCE     -7.396E-11
 LARGEST INCREMENT OF DISP.        -1.451E-02   AT NODE       1463   DOF  3
   INSTANCE: PART-1-1                                                                        
 LARGEST CORRECTION TO DISP.        1.671E-16   AT NODE       1558   DOF  3
   INSTANCE: PART-1-1                                                                        
          THE FORCE     EQUILIBRIUM RESPONSE WAS LINEAR IN THIS INCREMENT

 AVERAGE MOMENT                     1.697E+03   TIME AVG. MOMENT       891.    
 LARGEST SCALED RESIDUAL MOMENT     9.823E-11   AT NODE       1510   DOF  5
   INSTANCE: PART-1-1                                                                        
  CORRESPONDING RESIDUAL MOMENT     9.823E-11
 LARGEST INCREMENT OF ROTATION      2.106E-04   AT NODE       1441   DOF  4
   INSTANCE: PART-1-1                                                                        
 LARGEST CORRECTION TO ROTATION     5.225E-18   AT NODE       1549   DOF  5
   INSTANCE: PART-1-1                                                                        
          THE MOMENT    EQUILIBRIUM RESPONSE WAS LINEAR IN THIS INCREMENT

 ITERATION SUMMARY FOR THE INCREMENT:   1 TOTAL ITERATIONS, OF WHICH
   0 ARE SEVERE DISCONTINUITY ITERATIONS AND  1 ARE EQUILIBRIUM ITERATIONS.

 TIME INCREMENT COMPLETED  1.000E-02,  FRACTION OF STEP COMPLETED  0.190    
 STEP TIME COMPLETED       0.190    ,  TOTAL TIME COMPLETED        0.190    


  INCREMENT    20 STARTS. ATTEMPT NUMBER  1, TIME INCREMENT  1.000E-02
 
	SYMMETRIC NEW DIRECT SPARSE SOLVER RUNNING ON
 	1 HOST x 1 MPI RANK PER HOST x 4 THREADS PER RANK
        NUMBER OF EQUATIONS:  17280
        NUMBER OF RHS:        1
        NUMBER OF FLOPS:      6.321e+08
        SOLVER ELAPSED TIME:  45ms

               CONVERGENCE CHECKS FOR EQUILIBRIUM ITERATION     1


 AVERAGE FORCE                       10.6       TIME AVG. FORCE        5.53    
 LARGEST SCALED RESIDUAL FORCE      5.622E-11   AT NODE       1148   DOF  3
   INSTANCE: PART-1-1                                                                        
  CORRESPONDING RESIDUAL FORCE      5.622E-11
 LARGEST INCREMENT OF DISP.        -1.451E-02   AT NODE       1463   DOF  3
   INSTANCE: PART-1-1                                                                        
 LARGEST CORRECTION TO DISP.       -1.528E-16   AT NODE       1777   DOF  3
   INSTANCE: PART-1-1                                                                        
          THE FORCE     EQUILIBRIUM RESPONSE WAS LINEAR IN THIS INCREMENT

 AVERAGE MOMENT                     1.786E+03   TIME AVG. MOMENT       936.    
 LARGEST SCALED RESIDUAL MOMENT     1.278E-10   AT NODE       1637   DOF  5
   INSTANCE: PART-1-1                                                                        
  CORRESPONDING RESIDUAL MOMENT     1.278E-10
 LARGEST INCREMENT OF ROTATION      2.106E-04   AT NODE       1441   DOF  4
   INSTANCE: PART-1-1                                                                        
 LARGEST CORRECTION TO ROTATION    -6.786E-18   AT NODE       1685   DOF  4
   INSTANCE: PART-1-1                                                                        
          THE MOMENT    EQUILIBRIUM RESPONSE WAS LINEAR IN THIS INCREMENT

 ITERATION SUMMARY FOR THE INCREMENT:   1 TOTAL ITERATIONS, OF WHICH
   0 ARE SEVERE DISCONTINUITY ITERATIONS AND  1 ARE EQUILIBRIUM ITERATIONS.

 TIME INCREMENT COMPLETED  1.000E-02,  FRACTION OF STEP COMPLETED  0.200    
 STEP TIME COMPLETED       0.200    ,  TOTAL TIME COMPLETED        0.200    


  INCREMENT    21 STARTS. ATTEMPT NUMBER  1, TIME INCREMENT  1.000E-02
 
	SYMMETRIC NEW DIRECT SPARSE SOLVER RUNNING ON
 	1 HOST x 1 MPI RANK PER HOST x 4 THREADS PER RANK
        NUMBER OF EQUATIONS:  17280
        NUMBER OF RHS:        1
        NUMBER OF FLOPS:      6.321e+08
        SOLVER ELAPSED TIME:  62ms

               CONVERGENCE CHECKS FOR EQUILIBRIUM ITERATION     1


 AVERAGE FORCE                       11.1       TIME AVG. FORCE        5.80    
 LARGEST SCALED RESIDUAL FORCE     -6.743E-11   AT NODE       1150   DOF  3
   INSTANCE: PART-1-1                                                                        
  CORRESPONDING RESIDUAL FORCE     -6.743E-11
 LARGEST INCREMENT OF DISP.        -1.451E-02   AT NODE       1463   DOF  3
   INSTANCE: PART-1-1                                                                        
 LARGEST CORRECTION TO DISP.        2.663E-16   AT NODE       1600   DOF  3
   INSTANCE: PART-1-1                                                                        
          THE FORCE     EQUILIBRIUM RESPONSE WAS LINEAR IN THIS INCREMENT

 AVERAGE MOMENT                     1.875E+03   TIME AVG. MOMENT       981.    
 LARGEST SCALED RESIDUAL MOMENT    -1.082E-10   AT NODE       2003   DOF  5
   INSTANCE: PART-1-1                                                                        
  CORRESPONDING RESIDUAL MOMENT    -1.082E-10
 LARGEST INCREMENT OF ROTATION      2.106E-04   AT NODE       1441   DOF  4
   INSTANCE: PART-1-1                                                                        
 LARGEST CORRECTION TO ROTATION     7.074E-18   AT NODE       1729   DOF  4
   INSTANCE: PART-1-1                                                                        
          THE MOMENT    EQUILIBRIUM RESPONSE WAS LINEAR IN THIS INCREMENT

 ITERATION SUMMARY FOR THE INCREMENT:   1 TOTAL ITERATIONS, OF WHICH
   0 ARE SEVERE DISCONTINUITY ITERATIONS AND  1 ARE EQUILIBRIUM ITERATIONS.

 TIME INCREMENT COMPLETED  1.000E-02,  FRACTION OF STEP COMPLETED  0.210    
 STEP TIME COMPLETED       0.210    ,  TOTAL TIME COMPLETED        0.210    


  INCREMENT    22 STARTS. ATTEMPT NUMBER  1, TIME INCREMENT  1.000E-02
 
	SYMMETRIC NEW DIRECT SPARSE SOLVER RUNNING ON
 	1 HOST x 1 MPI RANK PER HOST x 4 THREADS PER RANK
        NUMBER OF EQUATIONS:  17280
        NUMBER OF RHS:        1
        NUMBER OF FLOPS:      6.321e+08
        SOLVER ELAPSED TIME:  47ms

               CONVERGENCE CHECKS FOR EQUILIBRIUM ITERATION     1


 AVERAGE FORCE                       11.6       TIME AVG. FORCE        6.06    
 LARGEST SCALED RESIDUAL FORCE     -7.363E-11   AT NODE       1874   DOF  3
   INSTANCE: PART-1-1                                                                        
  CORRESPONDING RESIDUAL FORCE     -7.363E-11
 LARGEST INCREMENT OF DISP.        -1.451E-02   AT NODE       1463   DOF  3
   INSTANCE: PART-1-1                                                                        
 LARGEST CORRECTION TO DISP.       -2.138E-16   AT NODE       1378   DOF  3
   INSTANCE: PART-1-1                                                                        
          THE FORCE     EQUILIBRIUM RESPONSE WAS LINEAR IN THIS INCREMENT

 AVERAGE MOMENT                     1.965E+03   TIME AVG. MOMENT      1.026E+03
 LARGEST SCALED RESIDUAL MOMENT     1.082E-10   AT NODE       1243   DOF  5
   INSTANCE: PART-1-1                                                                        
  CORRESPONDING RESIDUAL MOMENT     1.082E-10
 LARGEST INCREMENT OF ROTATION      2.106E-04   AT NODE       1441   DOF  4
   INSTANCE: PART-1-1                                                                        
 LARGEST CORRECTION TO ROTATION    -7.527E-18   AT NODE       1736   DOF  5
   INSTANCE: PART-1-1                                                                        
          THE MOMENT    EQUILIBRIUM RESPONSE WAS LINEAR IN THIS INCREMENT

 ITERATION SUMMARY FOR THE INCREMENT:   1 TOTAL ITERATIONS, OF WHICH
   0 ARE SEVERE DISCONTINUITY ITERATIONS AND  1 ARE EQUILIBRIUM ITERATIONS.

 TIME INCREMENT COMPLETED  1.000E-02,  FRACTION OF STEP COMPLETED  0.220    
 STEP TIME COMPLETED       0.220    ,  TOTAL TIME COMPLETED        0.220    


  INCREMENT    23 STARTS. ATTEMPT NUMBER  1, TIME INCREMENT  1.000E-02
 
	SYMMETRIC NEW DIRECT SPARSE SOLVER RUNNING ON
 	1 HOST x 1 MPI RANK PER HOST x 4 THREADS PER RANK
        NUMBER OF EQUATIONS:  17280
        NUMBER OF RHS:        1
        NUMBER OF FLOPS:      6.321e+08
        SOLVER ELAPSED TIME:  48ms

               CONVERGENCE CHECKS FOR EQUILIBRIUM ITERATION     1


 AVERAGE FORCE                       12.2       TIME AVG. FORCE        6.33    
 LARGEST SCALED RESIDUAL FORCE     -5.819E-11   AT NODE       1781   DOF  3
   INSTANCE: PART-1-1                                                                        
  CORRESPONDING RESIDUAL FORCE     -5.819E-11
 LARGEST INCREMENT OF DISP.        -1.451E-02   AT NODE       1463   DOF  3
   INSTANCE: PART-1-1                                                                        
 LARGEST CORRECTION TO DISP.       -2.811E-16   AT NODE       1463   DOF  3
   INSTANCE: PART-1-1                                                                        
          THE FORCE     EQUILIBRIUM RESPONSE WAS LINEAR IN THIS INCREMENT

 AVERAGE MOMENT                     2.054E+03   TIME AVG. MOMENT      1.070E+03
 LARGEST SCALED RESIDUAL MOMENT    -1.078E-10   AT NODE       1545   DOF  5
   INSTANCE: PART-1-1                                                                        
  CORRESPONDING RESIDUAL MOMENT    -1.078E-10
 LARGEST INCREMENT OF ROTATION      2.106E-04   AT NODE       1441   DOF  4
   INSTANCE: PART-1-1                                                                        
 LARGEST CORRECTION TO ROTATION     8.178E-18   AT NODE       1322   DOF  5
   INSTANCE: PART-1-1                                                                        
          THE MOMENT    EQUILIBRIUM RESPONSE WAS LINEAR IN THIS INCREMENT

 ITERATION SUMMARY FOR THE INCREMENT:   1 TOTAL ITERATIONS, OF WHICH
   0 ARE SEVERE DISCONTINUITY ITERATIONS AND  1 ARE EQUILIBRIUM ITERATIONS.

 TIME INCREMENT COMPLETED  1.000E-02,  FRACTION OF STEP COMPLETED  0.230    
 STEP TIME COMPLETED       0.230    ,  TOTAL TIME COMPLETED        0.230    


  INCREMENT    24 STARTS. ATTEMPT NUMBER  1, TIME INCREMENT  1.000E-02
 
	SYMMETRIC NEW DIRECT SPARSE SOLVER RUNNING ON
 	1 HOST x 1 MPI RANK PER HOST x 4 THREADS PER RANK
        NUMBER OF EQUATIONS:  17280
        NUMBER OF RHS:        1
        NUMBER OF FLOPS:      6.321e+08
        SOLVER ELAPSED TIME:  74ms

               CONVERGENCE CHECKS FOR EQUILIBRIUM ITERATION     1


 AVERAGE FORCE                       12.7       TIME AVG. FORCE        6.59    
 LARGEST SCALED RESIDUAL FORCE      6.982E-11   AT NODE       1290   DOF  3
   INSTANCE: PART-1-1                                                                        
  CORRESPONDING RESIDUAL FORCE      6.982E-11
 LARGEST INCREMENT OF DISP.        -1.451E-02   AT NODE       1463   DOF  3
   INSTANCE: PART-1-1                                                                        
 LARGEST CORRECTION TO DISP.        2.598E-16   AT NODE       1953   DOF  3
   INSTANCE: PART-1-1                                                                        
          THE FORCE     EQUILIBRIUM RESPONSE WAS LINEAR IN THIS INCREMENT

 AVERAGE MOMENT                     2.143E+03   TIME AVG. MOMENT      1.115E+03
 LARGEST SCALED RESIDUAL MOMENT    -1.164E-10   AT NODE       1692   DOF  5
   INSTANCE: PART-1-1                                                                        
  CORRESPONDING RESIDUAL MOMENT    -1.164E-10
 LARGEST INCREMENT OF ROTATION      2.106E-04   AT NODE       1441   DOF  4
   INSTANCE: PART-1-1                                                                        
 LARGEST CORRECTION TO ROTATION    -8.505E-18   AT NODE       1095   DOF  5
   INSTANCE: PART-1-1                                                                        
          THE MOMENT    EQUILIBRIUM RESPONSE WAS LINEAR IN THIS INCREMENT

 ITERATION SUMMARY FOR THE INCREMENT:   1 TOTAL ITERATIONS, OF WHICH
   0 ARE SEVERE DISCONTINUITY ITERATIONS AND  1 ARE EQUILIBRIUM ITERATIONS.

 TIME INCREMENT COMPLETED  1.000E-02,  FRACTION OF STEP COMPLETED  0.240    
 STEP TIME COMPLETED       0.240    ,  TOTAL TIME COMPLETED        0.240    


  INCREMENT    25 STARTS. ATTEMPT NUMBER  1, TIME INCREMENT  1.000E-02
 
	SYMMETRIC NEW DIRECT SPARSE SOLVER RUNNING ON
 	1 HOST x 1 MPI RANK PER HOST x 4 THREADS PER RANK
        NUMBER OF EQUATIONS:  17280
        NUMBER OF RHS:        1
        NUMBER OF FLOPS:      6.321e+08
        SOLVER ELAPSED TIME:  78ms

               CONVERGENCE CHECKS FOR EQUILIBRIUM ITERATION     1


 AVERAGE FORCE                       13.2       TIME AVG. FORCE        6.86    
 LARGEST SCALED RESIDUAL FORCE     -7.676E-11   AT NODE        971   DOF  3
   INSTANCE: PART-1-1                                                                        
  CORRESPONDING RESIDUAL FORCE     -7.676E-11
 LARGEST INCREMENT OF DISP.        -1.451E-02   AT NODE       1463   DOF  3
   INSTANCE: PART-1-1                                                                        
 LARGEST CORRECTION TO DISP.        2.436E-16   AT NODE       1274   DOF  3
   INSTANCE: PART-1-1                                                                        
          THE FORCE     EQUILIBRIUM RESPONSE WAS LINEAR IN THIS INCREMENT

 AVERAGE MOMENT                     2.232E+03   TIME AVG. MOMENT      1.160E+03
 LARGEST SCALED RESIDUAL MOMENT    -1.119E-10   AT NODE       1651   DOF  5
   INSTANCE: PART-1-1                                                                        
  CORRESPONDING RESIDUAL MOMENT    -1.119E-10
 LARGEST INCREMENT OF ROTATION      2.106E-04   AT NODE       1441   DOF  4
   INSTANCE: PART-1-1                                                                        
 LARGEST CORRECTION TO ROTATION    -7.446E-18   AT NODE       2004   DOF  5
   INSTANCE: PART-1-1                                                                        
          THE MOMENT    EQUILIBRIUM RESPONSE WAS LINEAR IN THIS INCREMENT

 ITERATION SUMMARY FOR THE INCREMENT:   1 TOTAL ITERATIONS, OF WHICH
   0 ARE SEVERE DISCONTINUITY ITERATIONS AND  1 ARE EQUILIBRIUM ITERATIONS.

 TIME INCREMENT COMPLETED  1.000E-02,  FRACTION OF STEP COMPLETED  0.250    
 STEP TIME COMPLETED       0.250    ,  TOTAL TIME COMPLETED        0.250    


  INCREMENT    26 STARTS. ATTEMPT NUMBER  1, TIME INCREMENT  1.000E-02
 
	SYMMETRIC NEW DIRECT SPARSE SOLVER RUNNING ON
 	1 HOST x 1 MPI RANK PER HOST x 4 THREADS PER RANK
        NUMBER OF EQUATIONS:  17280
        NUMBER OF RHS:        1
        NUMBER OF FLOPS:      6.321e+08
        SOLVER ELAPSED TIME:  65ms

               CONVERGENCE CHECKS FOR EQUILIBRIUM ITERATION     1


 AVERAGE FORCE                       13.8       TIME AVG. FORCE        7.12    
 LARGEST SCALED RESIDUAL FORCE     -9.001E-11   AT NODE        921   DOF  3
   INSTANCE: PART-1-1                                                                        
  CORRESPONDING RESIDUAL FORCE     -9.001E-11
 LARGEST INCREMENT OF DISP.        -1.451E-02   AT NODE       1463   DOF  3
   INSTANCE: PART-1-1                                                                        
 LARGEST CORRECTION TO DISP.       -2.740E-16   AT NODE       1274   DOF  3
   INSTANCE: PART-1-1                                                                        
          THE FORCE     EQUILIBRIUM RESPONSE WAS LINEAR IN THIS INCREMENT

 AVERAGE MOMENT                     2.322E+03   TIME AVG. MOMENT      1.204E+03
 LARGEST SCALED RESIDUAL MOMENT     1.087E-10   AT NODE       2000   DOF  5
   INSTANCE: PART-1-1                                                                        
  CORRESPONDING RESIDUAL MOMENT     1.087E-10
 LARGEST INCREMENT OF ROTATION      2.106E-04   AT NODE       1441   DOF  4
   INSTANCE: PART-1-1                                                                        
 LARGEST CORRECTION TO ROTATION     1.015E-17   AT NODE       1556   DOF  5
   INSTANCE: PART-1-1                                                                        
          THE MOMENT    EQUILIBRIUM RESPONSE WAS LINEAR IN THIS INCREMENT

 ITERATION SUMMARY FOR THE INCREMENT:   1 TOTAL ITERATIONS, OF WHICH
   0 ARE SEVERE DISCONTINUITY ITERATIONS AND  1 ARE EQUILIBRIUM ITERATIONS.

 TIME INCREMENT COMPLETED  1.000E-02,  FRACTION OF STEP COMPLETED  0.260    
 STEP TIME COMPLETED       0.260    ,  TOTAL TIME COMPLETED        0.260    


  INCREMENT    27 STARTS. ATTEMPT NUMBER  1, TIME INCREMENT  1.000E-02
 
	SYMMETRIC NEW DIRECT SPARSE SOLVER RUNNING ON
 	1 HOST x 1 MPI RANK PER HOST x 4 THREADS PER RANK
        NUMBER OF EQUATIONS:  17280
        NUMBER OF RHS:        1
        NUMBER OF FLOPS:      6.321e+08
        SOLVER ELAPSED TIME:  49ms

               CONVERGENCE CHECKS FOR EQUILIBRIUM ITERATION     1


 AVERAGE FORCE                       14.3       TIME AVG. FORCE        7.39    
 LARGEST SCALED RESIDUAL FORCE     -6.208E-11   AT NODE       1067   DOF  3
   INSTANCE: PART-1-1                                                                        
  CORRESPONDING RESIDUAL FORCE     -6.208E-11
 LARGEST INCREMENT OF DISP.        -1.451E-02   AT NODE       1463   DOF  3
   INSTANCE: PART-1-1                                                                        
 LARGEST CORRECTION TO DISP.        2.185E-16   AT NODE       2088   DOF  3
   INSTANCE: PART-1-1                                                                        
          THE FORCE     EQUILIBRIUM RESPONSE WAS LINEAR IN THIS INCREMENT

 AVERAGE MOMENT                     2.411E+03   TIME AVG. MOMENT      1.249E+03
 LARGEST SCALED RESIDUAL MOMENT     1.087E-10   AT NODE        886   DOF  5
   INSTANCE: PART-1-1                                                                        
  CORRESPONDING RESIDUAL MOMENT     1.087E-10
 LARGEST INCREMENT OF ROTATION      2.106E-04   AT NODE       1441   DOF  4
   INSTANCE: PART-1-1                                                                        
 LARGEST CORRECTION TO ROTATION    -1.018E-17   AT NODE       1556   DOF  5
   INSTANCE: PART-1-1                                                                        
          THE MOMENT    EQUILIBRIUM RESPONSE WAS LINEAR IN THIS INCREMENT

 ITERATION SUMMARY FOR THE INCREMENT:   1 TOTAL ITERATIONS, OF WHICH
   0 ARE SEVERE DISCONTINUITY ITERATIONS AND  1 ARE EQUILIBRIUM ITERATIONS.

 TIME INCREMENT COMPLETED  1.000E-02,  FRACTION OF STEP COMPLETED  0.270    
 STEP TIME COMPLETED       0.270    ,  TOTAL TIME COMPLETED        0.270    


  INCREMENT    28 STARTS. ATTEMPT NUMBER  1, TIME INCREMENT  1.000E-02
 
	SYMMETRIC NEW DIRECT SPARSE SOLVER RUNNING ON
 	1 HOST x 1 MPI RANK PER HOST x 4 THREADS PER RANK
        NUMBER OF EQUATIONS:  17280
        NUMBER OF RHS:        1
        NUMBER OF FLOPS:      6.321e+08
        SOLVER ELAPSED TIME:  49ms

               CONVERGENCE CHECKS FOR EQUILIBRIUM ITERATION     1


 AVERAGE FORCE                       14.8       TIME AVG. FORCE        7.65    
 LARGEST SCALED RESIDUAL FORCE      7.097E-11   AT NODE       1239   DOF  3
   INSTANCE: PART-1-1                                                                        
  CORRESPONDING RESIDUAL FORCE      7.097E-11
 LARGEST INCREMENT OF DISP.        -1.451E-02   AT NODE       1463   DOF  3
   INSTANCE: PART-1-1                                                                        
 LARGEST CORRECTION TO DISP.        3.087E-16   AT NODE        929   DOF  3
   INSTANCE: PART-1-1                                                                        
          THE FORCE     EQUILIBRIUM RESPONSE WAS LINEAR IN THIS INCREMENT

 AVERAGE MOMENT                     2.500E+03   TIME AVG. MOMENT      1.294E+03
 LARGEST SCALED RESIDUAL MOMENT    -1.096E-10   AT NODE       1066   DOF  5
   INSTANCE: PART-1-1                                                                        
  CORRESPONDING RESIDUAL MOMENT    -1.096E-10
 LARGEST INCREMENT OF ROTATION      2.106E-04   AT NODE       1441   DOF  4
   INSTANCE: PART-1-1                                                                        
 LARGEST CORRECTION TO ROTATION     7.753E-18   AT NODE       1922   DOF  5
   INSTANCE: PART-1-1                                                                        
          THE MOMENT    EQUILIBRIUM RESPONSE WAS LINEAR IN THIS INCREMENT

 ITERATION SUMMARY FOR THE INCREMENT:   1 TOTAL ITERATIONS, OF WHICH
   0 ARE SEVERE DISCONTINUITY ITERATIONS AND  1 ARE EQUILIBRIUM ITERATIONS.

 TIME INCREMENT COMPLETED  1.000E-02,  FRACTION OF STEP COMPLETED  0.280    
 STEP TIME COMPLETED       0.280    ,  TOTAL TIME COMPLETED        0.280    


  INCREMENT    29 STARTS. ATTEMPT NUMBER  1, TIME INCREMENT  1.000E-02
 
	SYMMETRIC NEW DIRECT SPARSE SOLVER RUNNING ON
 	1 HOST x 1 MPI RANK PER HOST x 4 THREADS PER RANK
        NUMBER OF EQUATIONS:  17280
        NUMBER OF RHS:        1
        NUMBER OF FLOPS:      6.321e+08
        SOLVER ELAPSED TIME:  94ms

               CONVERGENCE CHECKS FOR EQUILIBRIUM ITERATION     1


 AVERAGE FORCE                       15.3       TIME AVG. FORCE        7.92    
 LARGEST SCALED RESIDUAL FORCE     -7.353E-11   AT NODE       1695   DOF  3
   INSTANCE: PART-1-1                                                                        
  CORRESPONDING RESIDUAL FORCE     -7.353E-11
 LARGEST INCREMENT OF DISP.        -1.451E-02   AT NODE       1463   DOF  3
   INSTANCE: PART-1-1                                                                        
 LARGEST CORRECTION TO DISP.       -2.464E-16   AT NODE        931   DOF  3
   INSTANCE: PART-1-1                                                                        
          THE FORCE     EQUILIBRIUM RESPONSE WAS LINEAR IN THIS INCREMENT

 AVERAGE MOMENT                     2.590E+03   TIME AVG. MOMENT      1.338E+03
 LARGEST SCALED RESIDUAL MOMENT    -1.041E-10   AT NODE       1280   DOF  5
   INSTANCE: PART-1-1                                                                        
  CORRESPONDING RESIDUAL MOMENT    -1.041E-10
 LARGEST INCREMENT OF ROTATION      2.106E-04   AT NODE       1441   DOF  4
   INSTANCE: PART-1-1                                                                        
 LARGEST CORRECTION TO ROTATION    -7.255E-18   AT NODE       1231   DOF  5
   INSTANCE: PART-1-1                                                                        
          THE MOMENT    EQUILIBRIUM RESPONSE WAS LINEAR IN THIS INCREMENT

 ITERATION SUMMARY FOR THE INCREMENT:   1 TOTAL ITERATIONS, OF WHICH
   0 ARE SEVERE DISCONTINUITY ITERATIONS AND  1 ARE EQUILIBRIUM ITERATIONS.

 TIME INCREMENT COMPLETED  1.000E-02,  FRACTION OF STEP COMPLETED  0.290    
 STEP TIME COMPLETED       0.290    ,  TOTAL TIME COMPLETED        0.290    


  INCREMENT    30 STARTS. ATTEMPT NUMBER  1, TIME INCREMENT  1.000E-02
 
	SYMMETRIC NEW DIRECT SPARSE SOLVER RUNNING ON
 	1 HOST x 1 MPI RANK PER HOST x 4 THREADS PER RANK
        NUMBER OF EQUATIONS:  17280
        NUMBER OF RHS:        1
        NUMBER OF FLOPS:      6.321e+08
        SOLVER ELAPSED TIME:  49ms

               CONVERGENCE CHECKS FOR EQUILIBRIUM ITERATION     1


 AVERAGE FORCE                       15.9       TIME AVG. FORCE        8.18    
 LARGEST SCALED RESIDUAL FORCE     -8.908E-11   AT NODE       1284   DOF  3
   INSTANCE: PART-1-1                                                                        
  CORRESPONDING RESIDUAL FORCE     -8.908E-11
 LARGEST INCREMENT OF DISP.        -1.451E-02   AT NODE       1463   DOF  3
   INSTANCE: PART-1-1                                                                        
 LARGEST CORRECTION TO DISP.       -3.149E-16   AT NODE       1590   DOF  3
   INSTANCE: PART-1-1                                                                        
          THE FORCE     EQUILIBRIUM RESPONSE WAS LINEAR IN THIS INCREMENT

 AVERAGE MOMENT                     2.679E+03   TIME AVG. MOMENT      1.383E+03
 LARGEST SCALED RESIDUAL MOMENT    -9.959E-11   AT NODE       1964   DOF  5
   INSTANCE: PART-1-1                                                                        
  CORRESPONDING RESIDUAL MOMENT    -9.959E-11
 LARGEST INCREMENT OF ROTATION      2.106E-04   AT NODE       1441   DOF  4
   INSTANCE: PART-1-1                                                                        
 LARGEST CORRECTION TO ROTATION     7.929E-18   AT NODE       1231   DOF  5
   INSTANCE: PART-1-1                                                                        
          THE MOMENT    EQUILIBRIUM RESPONSE WAS LINEAR IN THIS INCREMENT

 ITERATION SUMMARY FOR THE INCREMENT:   1 TOTAL ITERATIONS, OF WHICH
   0 ARE SEVERE DISCONTINUITY ITERATIONS AND  1 ARE EQUILIBRIUM ITERATIONS.

 TIME INCREMENT COMPLETED  1.000E-02,  FRACTION OF STEP COMPLETED  0.300    
 STEP TIME COMPLETED       0.300    ,  TOTAL TIME COMPLETED        0.300    


  INCREMENT    31 STARTS. ATTEMPT NUMBER  1, TIME INCREMENT  1.000E-02
 
	SYMMETRIC NEW DIRECT SPARSE SOLVER RUNNING ON
 	1 HOST x 1 MPI RANK PER HOST x 4 THREADS PER RANK
        NUMBER OF EQUATIONS:  17280
        NUMBER OF RHS:        1
        NUMBER OF FLOPS:      6.321e+08
        SOLVER ELAPSED TIME:  64ms

               CONVERGENCE CHECKS FOR EQUILIBRIUM ITERATION     1


 AVERAGE FORCE                       16.4       TIME AVG. FORCE        8.45    
 LARGEST SCALED RESIDUAL FORCE      6.059E-11   AT NODE       2046   DOF  3
   INSTANCE: PART-1-1                                                                        
  CORRESPONDING RESIDUAL FORCE      6.059E-11
 LARGEST INCREMENT OF DISP.        -1.451E-02   AT NODE       1463   DOF  3
   INSTANCE: PART-1-1                                                                        
 LARGEST CORRECTION TO DISP.        2.667E-16   AT NODE       1055   DOF  3
   INSTANCE: PART-1-1                                                                        
          THE FORCE     EQUILIBRIUM RESPONSE WAS LINEAR IN THIS INCREMENT

 AVERAGE MOMENT                     2.768E+03   TIME AVG. MOMENT      1.428E+03
 LARGEST SCALED RESIDUAL MOMENT    -1.110E-10   AT NODE       1045   DOF  5
   INSTANCE: PART-1-1                                                                        
  CORRESPONDING RESIDUAL MOMENT    -1.110E-10
 LARGEST INCREMENT OF ROTATION      2.106E-04   AT NODE       1441   DOF  4
   INSTANCE: PART-1-1                                                                        
 LARGEST CORRECTION TO ROTATION    -7.160E-18   AT NODE       1110   DOF  5
   INSTANCE: PART-1-1                                                                        
          THE MOMENT    EQUILIBRIUM RESPONSE WAS LINEAR IN THIS INCREMENT

 ITERATION SUMMARY FOR THE INCREMENT:   1 TOTAL ITERATIONS, OF WHICH
   0 ARE SEVERE DISCONTINUITY ITERATIONS AND  1 ARE EQUILIBRIUM ITERATIONS.

 TIME INCREMENT COMPLETED  1.000E-02,  FRACTION OF STEP COMPLETED  0.310    
 STEP TIME COMPLETED       0.310    ,  TOTAL TIME COMPLETED        0.310    


  INCREMENT    32 STARTS. ATTEMPT NUMBER  1, TIME INCREMENT  1.000E-02
 
	SYMMETRIC NEW DIRECT SPARSE SOLVER RUNNING ON
 	1 HOST x 1 MPI RANK PER HOST x 4 THREADS PER RANK
        NUMBER OF EQUATIONS:  17280
        NUMBER OF RHS:        1
        NUMBER OF FLOPS:      6.321e+08
        SOLVER ELAPSED TIME:  47ms

               CONVERGENCE CHECKS FOR EQUILIBRIUM ITERATION     1


 AVERAGE FORCE                       16.9       TIME AVG. FORCE        8.71    
 LARGEST SCALED RESIDUAL FORCE      7.024E-11   AT NODE       1856   DOF  3
   INSTANCE: PART-1-1                                                                        
  CORRESPONDING RESIDUAL FORCE      7.024E-11
 LARGEST INCREMENT OF DISP.        -1.451E-02   AT NODE       1463   DOF  3
   INSTANCE: PART-1-1                                                                        
 LARGEST CORRECTION TO DISP.       -2.677E-16   AT NODE       2045   DOF  3
   INSTANCE: PART-1-1                                                                        
          THE FORCE     EQUILIBRIUM RESPONSE WAS LINEAR IN THIS INCREMENT

 AVERAGE MOMENT                     2.858E+03   TIME AVG. MOMENT      1.473E+03
 LARGEST SCALED RESIDUAL MOMENT    -1.091E-10   AT NODE       1248   DOF  5
   INSTANCE: PART-1-1                                                                        
  CORRESPONDING RESIDUAL MOMENT    -1.091E-10
 LARGEST INCREMENT OF ROTATION      2.106E-04   AT NODE       1441   DOF  4
   INSTANCE: PART-1-1                                                                        
 LARGEST CORRECTION TO ROTATION    -7.764E-18   AT NODE       1683   DOF  5
   INSTANCE: PART-1-1                                                                        
          THE MOMENT    EQUILIBRIUM RESPONSE WAS LINEAR IN THIS INCREMENT

 ITERATION SUMMARY FOR THE INCREMENT:   1 TOTAL ITERATIONS, OF WHICH
   0 ARE SEVERE DISCONTINUITY ITERATIONS AND  1 ARE EQUILIBRIUM ITERATIONS.

 TIME INCREMENT COMPLETED  1.000E-02,  FRACTION OF STEP COMPLETED  0.320    
 STEP TIME COMPLETED       0.320    ,  TOTAL TIME COMPLETED        0.320    


  INCREMENT    33 STARTS. ATTEMPT NUMBER  1, TIME INCREMENT  1.000E-02
 
	SYMMETRIC NEW DIRECT SPARSE SOLVER RUNNING ON
 	1 HOST x 1 MPI RANK PER HOST x 4 THREADS PER RANK
        NUMBER OF EQUATIONS:  17280
        NUMBER OF RHS:        1
        NUMBER OF FLOPS:      6.321e+08
        SOLVER ELAPSED TIME:  82ms

               CONVERGENCE CHECKS FOR EQUILIBRIUM ITERATION     1


 AVERAGE FORCE                       17.5       TIME AVG. FORCE        8.98    
 LARGEST SCALED RESIDUAL FORCE      6.911E-11   AT NODE       1363   DOF  3
   INSTANCE: PART-1-1                                                                        
  CORRESPONDING RESIDUAL FORCE      6.911E-11
 LARGEST INCREMENT OF DISP.        -1.451E-02   AT NODE       1463   DOF  3
   INSTANCE: PART-1-1                                                                        
 LARGEST CORRECTION TO DISP.        2.783E-16   AT NODE       1589   DOF  3
   INSTANCE: PART-1-1                                                                        
          THE FORCE     EQUILIBRIUM RESPONSE WAS LINEAR IN THIS INCREMENT

 AVERAGE MOMENT                     2.947E+03   TIME AVG. MOMENT      1.517E+03
 LARGEST SCALED RESIDUAL MOMENT    -1.028E-10   AT NODE       1325   DOF  5
   INSTANCE: PART-1-1                                                                        
  CORRESPONDING RESIDUAL MOMENT    -1.028E-10
 LARGEST INCREMENT OF ROTATION      2.106E-04   AT NODE       1441   DOF  4
   INSTANCE: PART-1-1                                                                        
 LARGEST CORRECTION TO ROTATION     8.267E-18   AT NODE       1415   DOF  5
   INSTANCE: PART-1-1                                                                        
          THE MOMENT    EQUILIBRIUM RESPONSE WAS LINEAR IN THIS INCREMENT

 ITERATION SUMMARY FOR THE INCREMENT:   1 TOTAL ITERATIONS, OF WHICH
   0 ARE SEVERE DISCONTINUITY ITERATIONS AND  1 ARE EQUILIBRIUM ITERATIONS.

 TIME INCREMENT COMPLETED  1.000E-02,  FRACTION OF STEP COMPLETED  0.330    
 STEP TIME COMPLETED       0.330    ,  TOTAL TIME COMPLETED        0.330    


  INCREMENT    34 STARTS. ATTEMPT NUMBER  1, TIME INCREMENT  1.000E-02
 
	SYMMETRIC NEW DIRECT SPARSE SOLVER RUNNING ON
 	1 HOST x 1 MPI RANK PER HOST x 4 THREADS PER RANK
        NUMBER OF EQUATIONS:  17280
        NUMBER OF RHS:        1
        NUMBER OF FLOPS:      6.321e+08
        SOLVER ELAPSED TIME:  60ms

               CONVERGENCE CHECKS FOR EQUILIBRIUM ITERATION     1


 AVERAGE FORCE                       18.0       TIME AVG. FORCE        9.24    
 LARGEST SCALED RESIDUAL FORCE     -8.559E-11   AT NODE        973   DOF  3
   INSTANCE: PART-1-1                                                                        
  CORRESPONDING RESIDUAL FORCE     -8.559E-11
 LARGEST INCREMENT OF DISP.        -1.451E-02   AT NODE       1463   DOF  3
   INSTANCE: PART-1-1                                                                        
 LARGEST CORRECTION TO DISP.        3.129E-16   AT NODE        656   DOF  3
   INSTANCE: PART-1-1                                                                        
          THE FORCE     EQUILIBRIUM RESPONSE WAS LINEAR IN THIS INCREMENT

 AVERAGE MOMENT                     3.036E+03   TIME AVG. MOMENT      1.562E+03
 LARGEST SCALED RESIDUAL MOMENT     1.032E-10   AT NODE       2057   DOF  5
   INSTANCE: PART-1-1                                                                        
  CORRESPONDING RESIDUAL MOMENT     1.032E-10
 LARGEST INCREMENT OF ROTATION      2.106E-04   AT NODE       1441   DOF  4
   INSTANCE: PART-1-1                                                                        
 LARGEST CORRECTION TO ROTATION     7.245E-18   AT NODE       1239   DOF  4
   INSTANCE: PART-1-1                                                                        
          THE MOMENT    EQUILIBRIUM RESPONSE WAS LINEAR IN THIS INCREMENT

 ITERATION SUMMARY FOR THE INCREMENT:   1 TOTAL ITERATIONS, OF WHICH
   0 ARE SEVERE DISCONTINUITY ITERATIONS AND  1 ARE EQUILIBRIUM ITERATIONS.

 TIME INCREMENT COMPLETED  1.000E-02,  FRACTION OF STEP COMPLETED  0.340    
 STEP TIME COMPLETED       0.340    ,  TOTAL TIME COMPLETED        0.340    


  INCREMENT    35 STARTS. ATTEMPT NUMBER  1, TIME INCREMENT  1.000E-02
 
	SYMMETRIC NEW DIRECT SPARSE SOLVER RUNNING ON
 	1 HOST x 1 MPI RANK PER HOST x 4 THREADS PER RANK
        NUMBER OF EQUATIONS:  17280
        NUMBER OF RHS:        1
        NUMBER OF FLOPS:      6.321e+08
        SOLVER ELAPSED TIME:  48ms

               CONVERGENCE CHECKS FOR EQUILIBRIUM ITERATION     1


 AVERAGE FORCE                       18.5       TIME AVG. FORCE        9.51    
 LARGEST SCALED RESIDUAL FORCE      9.558E-11   AT NODE       1419   DOF  3
   INSTANCE: PART-1-1                                                                        
  CORRESPONDING RESIDUAL FORCE      9.558E-11
 LARGEST INCREMENT OF DISP.        -1.451E-02   AT NODE       1463   DOF  3
   INSTANCE: PART-1-1                                                                        
 LARGEST CORRECTION TO DISP.       -3.414E-16   AT NODE       2045   DOF  3
   INSTANCE: PART-1-1                                                                        
          THE FORCE     EQUILIBRIUM RESPONSE WAS LINEAR IN THIS INCREMENT

 AVERAGE MOMENT                     3.125E+03   TIME AVG. MOMENT      1.607E+03
 LARGEST SCALED RESIDUAL MOMENT    -1.119E-10   AT NODE       1269   DOF  5
   INSTANCE: PART-1-1                                                                        
  CORRESPONDING RESIDUAL MOMENT    -1.119E-10
 LARGEST INCREMENT OF ROTATION      2.106E-04   AT NODE       1441   DOF  4
   INSTANCE: PART-1-1                                                                        
 LARGEST CORRECTION TO ROTATION     8.948E-18   AT NODE       1674   DOF  5
   INSTANCE: PART-1-1                                                                        
          THE MOMENT    EQUILIBRIUM RESPONSE WAS LINEAR IN THIS INCREMENT

[...]
        NUMBER OF RHS:        1
        NUMBER OF FLOPS:      6.321e+08
        SOLVER ELAPSED TIME:  48ms

               CONVERGENCE CHECKS FOR EQUILIBRIUM ITERATION     1


 AVERAGE FORCE                       48.7       TIME AVG. FORCE        24.6    
 LARGEST SCALED RESIDUAL FORCE      2.543E-10   AT NODE       1644   DOF  3
   INSTANCE: PART-1-1                                                                        
  CORRESPONDING RESIDUAL FORCE      2.543E-10
 LARGEST INCREMENT OF DISP.        -1.451E-02   AT NODE       1463   DOF  3
   INSTANCE: PART-1-1                                                                        
 LARGEST CORRECTION TO DISP.        1.114E-15   AT NODE       1423   DOF  3
   INSTANCE: PART-1-1                                                                        
          THE FORCE     EQUILIBRIUM RESPONSE WAS LINEAR IN THIS INCREMENT

 AVERAGE MOMENT                     8.216E+03   TIME AVG. MOMENT      4.152E+03
 LARGEST SCALED RESIDUAL MOMENT    -4.238E-10   AT NODE        963   DOF  5
   INSTANCE: PART-1-1                                                                        
  CORRESPONDING RESIDUAL MOMENT    -4.238E-10
 LARGEST INCREMENT OF ROTATION      2.106E-04   AT NODE       1441   DOF  4
   INSTANCE: PART-1-1                                                                        
 LARGEST CORRECTION TO ROTATION    -2.812E-17   AT NODE        923   DOF  4
   INSTANCE: PART-1-1                                                                        
          THE MOMENT    EQUILIBRIUM RESPONSE WAS LINEAR IN THIS INCREMENT

 ITERATION SUMMARY FOR THE INCREMENT:   1 TOTAL ITERATIONS, OF WHICH
   0 ARE SEVERE DISCONTINUITY ITERATIONS AND  1 ARE EQUILIBRIUM ITERATIONS.

 TIME INCREMENT COMPLETED  1.000E-02,  FRACTION OF STEP COMPLETED  0.920    
 STEP TIME COMPLETED       0.920    ,  TOTAL TIME COMPLETED        0.920    


  INCREMENT    93 STARTS. ATTEMPT NUMBER  1, TIME INCREMENT  1.000E-02
 
	SYMMETRIC NEW DIRECT SPARSE SOLVER RUNNING ON
 	1 HOST x 1 MPI RANK PER HOST x 4 THREADS PER RANK
        NUMBER OF EQUATIONS:  17280
        NUMBER OF RHS:        1
        NUMBER OF FLOPS:      6.321e+08
        SOLVER ELAPSED TIME:  49ms

               CONVERGENCE CHECKS FOR EQUILIBRIUM ITERATION     1


 AVERAGE FORCE                       49.2       TIME AVG. FORCE        24.9    
 LARGEST SCALED RESIDUAL FORCE      2.894E-10   AT NODE       1998   DOF  3
   INSTANCE: PART-1-1                                                                        
  CORRESPONDING RESIDUAL FORCE      2.894E-10
 LARGEST INCREMENT OF DISP.        -1.451E-02   AT NODE       1463   DOF  3
   INSTANCE: PART-1-1                                                                        
 LARGEST CORRECTION TO DISP.       -1.120E-15   AT NODE       1638   DOF  3
   INSTANCE: PART-1-1                                                                        
          THE FORCE     EQUILIBRIUM RESPONSE WAS LINEAR IN THIS INCREMENT

 AVERAGE MOMENT                     8.305E+03   TIME AVG. MOMENT      4.197E+03
 LARGEST SCALED RESIDUAL MOMENT    -3.402E-10   AT NODE       1201   DOF  5
   INSTANCE: PART-1-1                                                                        
  CORRESPONDING RESIDUAL MOMENT    -3.402E-10
 LARGEST INCREMENT OF ROTATION      2.106E-04   AT NODE       1441   DOF  4
   INSTANCE: PART-1-1                                                                        
 LARGEST CORRECTION TO ROTATION    -3.547E-17   AT NODE       1516   DOF  5
   INSTANCE: PART-1-1                                                                        
          THE MOMENT    EQUILIBRIUM RESPONSE WAS LINEAR IN THIS INCREMENT

 ITERATION SUMMARY FOR THE INCREMENT:   1 TOTAL ITERATIONS, OF WHICH
   0 ARE SEVERE DISCONTINUITY ITERATIONS AND  1 ARE EQUILIBRIUM ITERATIONS.

 TIME INCREMENT COMPLETED  1.000E-02,  FRACTION OF STEP COMPLETED  0.930    
 STEP TIME COMPLETED       0.930    ,  TOTAL TIME COMPLETED        0.930    


  INCREMENT    94 STARTS. ATTEMPT NUMBER  1, TIME INCREMENT  1.000E-02
 
	SYMMETRIC NEW DIRECT SPARSE SOLVER RUNNING ON
 	1 HOST x 1 MPI RANK PER HOST x 4 THREADS PER RANK
        NUMBER OF EQUATIONS:  17280
        NUMBER OF RHS:        1
        NUMBER OF FLOPS:      6.321e+08
        SOLVER ELAPSED TIME:  39ms

               CONVERGENCE CHECKS FOR EQUILIBRIUM ITERATION     1


 AVERAGE FORCE                       49.7       TIME AVG. FORCE        25.1    
 LARGEST SCALED RESIDUAL FORCE     -3.149E-10   AT NODE       1460   DOF  3
   INSTANCE: PART-1-1                                                                        
  CORRESPONDING RESIDUAL FORCE     -3.149E-10
 LARGEST INCREMENT OF DISP.        -1.451E-02   AT NODE       1463   DOF  3
   INSTANCE: PART-1-1                                                                        
 LARGEST CORRECTION TO DISP.        1.346E-15   AT NODE       1727   DOF  3
   INSTANCE: PART-1-1                                                                        
          THE FORCE     EQUILIBRIUM RESPONSE WAS LINEAR IN THIS INCREMENT

 AVERAGE MOMENT                     8.394E+03   TIME AVG. MOMENT      4.241E+03
 LARGEST SCALED RESIDUAL MOMENT    -4.293E-10   AT NODE       1418   DOF  5
   INSTANCE: PART-1-1                                                                        
  CORRESPONDING RESIDUAL MOMENT    -4.293E-10
 LARGEST INCREMENT OF ROTATION      2.106E-04   AT NODE       1441   DOF  4
   INSTANCE: PART-1-1                                                                        
 LARGEST CORRECTION TO ROTATION     2.741E-17   AT NODE       1964   DOF  5
   INSTANCE: PART-1-1                                                                        
          THE MOMENT    EQUILIBRIUM RESPONSE WAS LINEAR IN THIS INCREMENT

 ITERATION SUMMARY FOR THE INCREMENT:   1 TOTAL ITERATIONS, OF WHICH
   0 ARE SEVERE DISCONTINUITY ITERATIONS AND  1 ARE EQUILIBRIUM ITERATIONS.

 TIME INCREMENT COMPLETED  1.000E-02,  FRACTION OF STEP COMPLETED  0.940    
 STEP TIME COMPLETED       0.940    ,  TOTAL TIME COMPLETED        0.940    


  INCREMENT    95 STARTS. ATTEMPT NUMBER  1, TIME INCREMENT  1.000E-02
 
	SYMMETRIC NEW DIRECT SPARSE SOLVER RUNNING ON
 	1 HOST x 1 MPI RANK PER HOST x 4 THREADS PER RANK
        NUMBER OF EQUATIONS:  17280
        NUMBER OF RHS:        1
        NUMBER OF FLOPS:      6.321e+08
        SOLVER ELAPSED TIME:  49ms

               CONVERGENCE CHECKS FOR EQUILIBRIUM ITERATION     1


 AVERAGE FORCE                       50.3       TIME AVG. FORCE        25.4    
 LARGEST SCALED RESIDUAL FORCE      2.691E-10   AT NODE       1201   DOF  3
   INSTANCE: PART-1-1                                                                        
  CORRESPONDING RESIDUAL FORCE      2.691E-10
 LARGEST INCREMENT OF DISP.        -1.451E-02   AT NODE       1463   DOF  3
   INSTANCE: PART-1-1                                                                        
 LARGEST CORRECTION TO DISP.       -1.228E-15   AT NODE       1463   DOF  3
   INSTANCE: PART-1-1                                                                        
          THE FORCE     EQUILIBRIUM RESPONSE WAS LINEAR IN THIS INCREMENT

 AVERAGE MOMENT                     8.483E+03   TIME AVG. MOMENT      4.286E+03
 LARGEST SCALED RESIDUAL MOMENT    -5.093E-10   AT NODE       1513   DOF  5
   INSTANCE: PART-1-1                                                                        
  CORRESPONDING RESIDUAL MOMENT    -5.093E-10
 LARGEST INCREMENT OF ROTATION      2.106E-04   AT NODE       1441   DOF  4
   INSTANCE: PART-1-1                                                                        
 LARGEST CORRECTION TO ROTATION    -3.929E-17   AT NODE       1553   DOF  5
   INSTANCE: PART-1-1                                                                        
          THE MOMENT    EQUILIBRIUM RESPONSE WAS LINEAR IN THIS INCREMENT

 ITERATION SUMMARY FOR THE INCREMENT:   1 TOTAL ITERATIONS, OF WHICH
   0 ARE SEVERE DISCONTINUITY ITERATIONS AND  1 ARE EQUILIBRIUM ITERATIONS.

 TIME INCREMENT COMPLETED  1.000E-02,  FRACTION OF STEP COMPLETED  0.950    
 STEP TIME COMPLETED       0.950    ,  TOTAL TIME COMPLETED        0.950    


  INCREMENT    96 STARTS. ATTEMPT NUMBER  1, TIME INCREMENT  1.000E-02
 
	SYMMETRIC NEW DIRECT SPARSE SOLVER RUNNING ON
 	1 HOST x 1 MPI RANK PER HOST x 4 THREADS PER RANK
        NUMBER OF EQUATIONS:  17280
        NUMBER OF RHS:        1
        NUMBER OF FLOPS:      6.321e+08
        SOLVER ELAPSED TIME:  59ms

               CONVERGENCE CHECKS FOR EQUILIBRIUM ITERATION     1


 AVERAGE FORCE                       50.8       TIME AVG. FORCE        25.7    
 LARGEST SCALED RESIDUAL FORCE      2.739E-10   AT NODE       1067   DOF  3
   INSTANCE: PART-1-1                                                                        
  CORRESPONDING RESIDUAL FORCE      2.739E-10
 LARGEST INCREMENT OF DISP.        -1.451E-02   AT NODE       1463   DOF  3
   INSTANCE: PART-1-1                                                                        
 LARGEST CORRECTION TO DISP.        1.252E-15   AT NODE       1370   DOF  3
   INSTANCE: PART-1-1                                                                        
          THE FORCE     EQUILIBRIUM RESPONSE WAS LINEAR IN THIS INCREMENT

 AVERAGE MOMENT                     8.573E+03   TIME AVG. MOMENT      4.331E+03
 LARGEST SCALED RESIDUAL MOMENT    -5.002E-10   AT NODE       2008   DOF  5
   INSTANCE: PART-1-1                                                                        
  CORRESPONDING RESIDUAL MOMENT    -5.002E-10
 LARGEST INCREMENT OF ROTATION      2.106E-04   AT NODE       1441   DOF  4
   INSTANCE: PART-1-1                                                                        
 LARGEST CORRECTION TO ROTATION     4.655E-17   AT NODE       1553   DOF  5
   INSTANCE: PART-1-1                                                                        
          THE MOMENT    EQUILIBRIUM RESPONSE WAS LINEAR IN THIS INCREMENT

 ITERATION SUMMARY FOR THE INCREMENT:   1 TOTAL ITERATIONS, OF WHICH
   0 ARE SEVERE DISCONTINUITY ITERATIONS AND  1 ARE EQUILIBRIUM ITERATIONS.

 TIME INCREMENT COMPLETED  1.000E-02,  FRACTION OF STEP COMPLETED  0.960    
 STEP TIME COMPLETED       0.960    ,  TOTAL TIME COMPLETED        0.960    


  INCREMENT    97 STARTS. ATTEMPT NUMBER  1, TIME INCREMENT  1.000E-02
 
	SYMMETRIC NEW DIRECT SPARSE SOLVER RUNNING ON
 	1 HOST x 1 MPI RANK PER HOST x 4 THREADS PER RANK
        NUMBER OF EQUATIONS:  17280
        NUMBER OF RHS:        1
        NUMBER OF FLOPS:      6.321e+08
        SOLVER ELAPSED TIME:  49ms

               CONVERGENCE CHECKS FOR EQUILIBRIUM ITERATION     1


 AVERAGE FORCE                       51.3       TIME AVG. FORCE        25.9    
 LARGEST SCALED RESIDUAL FORCE      3.042E-10   AT NODE       1022   DOF  3
   INSTANCE: PART-1-1                                                                        
  CORRESPONDING RESIDUAL FORCE      3.042E-10
 LARGEST INCREMENT OF DISP.        -1.451E-02   AT NODE       1463   DOF  3
   INSTANCE: PART-1-1                                                                        
 LARGEST CORRECTION TO DISP.        9.393E-16   AT NODE       1918   DOF  3
   INSTANCE: PART-1-1                                                                        
          THE FORCE     EQUILIBRIUM RESPONSE WAS LINEAR IN THIS INCREMENT

 AVERAGE MOMENT                     8.662E+03   TIME AVG. MOMENT      4.375E+03
 LARGEST SCALED RESIDUAL MOMENT     3.874E-10   AT NODE       1543   DOF  5
   INSTANCE: PART-1-1                                                                        
  CORRESPONDING RESIDUAL MOMENT     3.874E-10
 LARGEST INCREMENT OF ROTATION      2.106E-04   AT NODE       1441   DOF  4
   INSTANCE: PART-1-1                                                                        
 LARGEST CORRECTION TO ROTATION    -3.108E-17   AT NODE       1458   DOF  5
   INSTANCE: PART-1-1                                                                        
          THE MOMENT    EQUILIBRIUM RESPONSE WAS LINEAR IN THIS INCREMENT

 ITERATION SUMMARY FOR THE INCREMENT:   1 TOTAL ITERATIONS, OF WHICH
   0 ARE SEVERE DISCONTINUITY ITERATIONS AND  1 ARE EQUILIBRIUM ITERATIONS.

 TIME INCREMENT COMPLETED  1.000E-02,  FRACTION OF STEP COMPLETED  0.970    
 STEP TIME COMPLETED       0.970    ,  TOTAL TIME COMPLETED        0.970    


  INCREMENT    98 STARTS. ATTEMPT NUMBER  1, TIME INCREMENT  1.000E-02
 
	SYMMETRIC NEW DIRECT SPARSE SOLVER RUNNING ON
 	1 HOST x 1 MPI RANK PER HOST x 4 THREADS PER RANK
        NUMBER OF EQUATIONS:  17280
        NUMBER OF RHS:        1
        NUMBER OF FLOPS:      6.321e+08
        SOLVER ELAPSED TIME:  51ms

               CONVERGENCE CHECKS FOR EQUILIBRIUM ITERATION     1


 AVERAGE FORCE                       51.8       TIME AVG. FORCE        26.2    
 LARGEST SCALED RESIDUAL FORCE     -2.606E-10   AT NODE       1962   DOF  3
   INSTANCE: PART-1-1                                                                        
  CORRESPONDING RESIDUAL FORCE     -2.606E-10
 LARGEST INCREMENT OF DISP.        -1.451E-02   AT NODE       1463   DOF  3
   INSTANCE: PART-1-1                                                                        
 LARGEST CORRECTION TO DISP.        1.111E-15   AT NODE       1145   DOF  3
   INSTANCE: PART-1-1                                                                        
          THE FORCE     EQUILIBRIUM RESPONSE WAS LINEAR IN THIS INCREMENT

 AVERAGE MOMENT                     8.751E+03   TIME AVG. MOMENT      4.420E+03
 LARGEST SCALED RESIDUAL MOMENT    -3.929E-10   AT NODE        965   DOF  5
   INSTANCE: PART-1-1                                                                        
  CORRESPONDING RESIDUAL MOMENT    -3.929E-10
 LARGEST INCREMENT OF ROTATION      2.106E-04   AT NODE       1441   DOF  4
   INSTANCE: PART-1-1                                                                        
 LARGEST CORRECTION TO ROTATION     2.906E-17   AT NODE       1684   DOF  5
   INSTANCE: PART-1-1                                                                        
          THE MOMENT    EQUILIBRIUM RESPONSE WAS LINEAR IN THIS INCREMENT

 ITERATION SUMMARY FOR THE INCREMENT:   1 TOTAL ITERATIONS, OF WHICH
   0 ARE SEVERE DISCONTINUITY ITERATIONS AND  1 ARE EQUILIBRIUM ITERATIONS.

 TIME INCREMENT COMPLETED  1.000E-02,  FRACTION OF STEP COMPLETED  0.980    
 STEP TIME COMPLETED       0.980    ,  TOTAL TIME COMPLETED        0.980    


  INCREMENT    99 STARTS. ATTEMPT NUMBER  1, TIME INCREMENT  1.000E-02
 
	SYMMETRIC NEW DIRECT SPARSE SOLVER RUNNING ON
 	1 HOST x 1 MPI RANK PER HOST x 4 THREADS PER RANK
        NUMBER OF EQUATIONS:  17280
        NUMBER OF RHS:        1
        NUMBER OF FLOPS:      6.321e+08
        SOLVER ELAPSED TIME:  49ms

               CONVERGENCE CHECKS FOR EQUILIBRIUM ITERATION     1


 AVERAGE FORCE                       52.4       TIME AVG. FORCE        26.4    
 LARGEST SCALED RESIDUAL FORCE     -2.632E-10   AT NODE       1203   DOF  3
   INSTANCE: PART-1-1                                                                        
  CORRESPONDING RESIDUAL FORCE     -2.632E-10
 LARGEST INCREMENT OF DISP.        -1.451E-02   AT NODE       1463   DOF  3
   INSTANCE: PART-1-1                                                                        
 LARGEST CORRECTION TO DISP.       -1.059E-15   AT NODE       1013   DOF  3
   INSTANCE: PART-1-1                                                                        
          THE FORCE     EQUILIBRIUM RESPONSE WAS LINEAR IN THIS INCREMENT

 AVERAGE MOMENT                     8.841E+03   TIME AVG. MOMENT      4.465E+03
 LARGEST SCALED RESIDUAL MOMENT    -4.275E-10   AT NODE       1058   DOF  5
   INSTANCE: PART-1-1                                                                        
  CORRESPONDING RESIDUAL MOMENT    -4.275E-10
 LARGEST INCREMENT OF ROTATION      2.106E-04   AT NODE       1441   DOF  4
   INSTANCE: PART-1-1                                                                        
 LARGEST CORRECTION TO ROTATION     3.566E-17   AT NODE       1686   DOF  5
   INSTANCE: PART-1-1                                                                        
          THE MOMENT    EQUILIBRIUM RESPONSE WAS LINEAR IN THIS INCREMENT

 ITERATION SUMMARY FOR THE INCREMENT:   1 TOTAL ITERATIONS, OF WHICH
   0 ARE SEVERE DISCONTINUITY ITERATIONS AND  1 ARE EQUILIBRIUM ITERATIONS.

 TIME INCREMENT COMPLETED  1.000E-02,  FRACTION OF STEP COMPLETED  0.990    
 STEP TIME COMPLETED       0.990    ,  TOTAL TIME COMPLETED        0.990    


  INCREMENT   100 STARTS. ATTEMPT NUMBER  1, TIME INCREMENT  1.000E-02
 
	SYMMETRIC NEW DIRECT SPARSE SOLVER RUNNING ON
 	1 HOST x 1 MPI RANK PER HOST x 4 THREADS PER RANK
        NUMBER OF EQUATIONS:  17280
        NUMBER OF RHS:        1
        NUMBER OF FLOPS:      6.321e+08
        SOLVER ELAPSED TIME:  49ms

               CONVERGENCE CHECKS FOR EQUILIBRIUM ITERATION     1


 AVERAGE FORCE                       52.9       TIME AVG. FORCE        26.7    
 LARGEST SCALED RESIDUAL FORCE     -3.223E-10   AT NODE       1814   DOF  3
   INSTANCE: PART-1-1                                                                        
  CORRESPONDING RESIDUAL FORCE     -3.223E-10
 LARGEST INCREMENT OF DISP.        -1.451E-02   AT NODE       1463   DOF  3
   INSTANCE: PART-1-1                                                                        
 LARGEST CORRECTION TO DISP.        8.474E-16   AT NODE       1696   DOF  3
   INSTANCE: PART-1-1                                                                        
          THE FORCE     EQUILIBRIUM RESPONSE WAS LINEAR IN THIS INCREMENT

 AVERAGE MOMENT                     8.930E+03   TIME AVG. MOMENT      4.509E+03
 LARGEST SCALED RESIDUAL MOMENT     4.147E-10   AT NODE       1145   DOF  5
   INSTANCE: PART-1-1                                                                        
  CORRESPONDING RESIDUAL MOMENT     4.147E-10
 LARGEST INCREMENT OF ROTATION      2.106E-04   AT NODE       1441   DOF  4
   INSTANCE: PART-1-1                                                                        
 LARGEST CORRECTION TO ROTATION    -2.926E-17   AT NODE       1051   DOF  5
   INSTANCE: PART-1-1                                                                        
          THE MOMENT    EQUILIBRIUM RESPONSE WAS LINEAR IN THIS INCREMENT

 ITERATION SUMMARY FOR THE INCREMENT:   1 TOTAL ITERATIONS, OF WHICH
   0 ARE SEVERE DISCONTINUITY ITERATIONS AND  1 ARE EQUILIBRIUM ITERATIONS.

 TIME INCREMENT COMPLETED  1.000E-02,  FRACTION OF STEP COMPLETED   1.00    
 STEP TIME COMPLETED        1.00    ,  TOTAL TIME COMPLETED         1.00    


          THE ANALYSIS HAS BEEN COMPLETED



     ANALYSIS SUMMARY:
     TOTAL OF        100  INCREMENTS
                       0  CUTBACKS IN AUTOMATIC INCREMENTATION
                     100  ITERATIONS INCLUDING CONTACT ITERATIONS IF PRESENT
                     100  PASSES THROUGH THE EQUATION SOLVER OF WHICH 
                       1  INVOLVE MATRIX DECOMPOSITION, INCLUDING
                       0  DECOMPOSITION(S) OF THE MASS MATRIX
                       1  REORDERING OF EQUATIONS TO MINIMIZE WAVEFRONT
                       0  ADDITIONAL RESIDUAL EVALUATIONS FOR LINE SEARCHES
                       0  ADDITIONAL OPERATOR EVALUATIONS FOR LINE SEARCHES
                       0  WARNING MESSAGES DURING USER INPUT PROCESSING
                       0  WARNING MESSAGES DURING ANALYSIS
                       0  ANALYSIS WARNINGS ARE NUMERICAL PROBLEM MESSAGES
                       0  ANALYSIS WARNINGS ARE NEGATIVE EIGENVALUE MESSAGES
                       0  ERROR MESSAGES



     JOB TIME SUMMARY
       USER TIME (SEC)      =      32.    
       SYSTEM TIME (SEC)    =      5.6    
       TOTAL CPU TIME (SEC) =      38.    
       WALLCLOCK TIME (SEC) =           26
       MEMORY PEAK (GB)     =            0
