*Heading
** Job name: SHELL_S4_30 Model name: BEAM_SHELL
** Generated by: Abaqus/CAE 2022
*Preprint, echo=NO, model=NO, history=NO, contact=NO
**
** PARTS
**
*Part, name=Beam
*Node
      1,         47.5,           0.,         900.
      2,           0.,           0.,         900.
      3,           0.,           0.,           0.
      4,         47.5,           0.,           0.
      5,           0.,         142.,         900.
      6,           0.,         142.,           0.
      7,         47.5,         142.,         900.
      8,         47.5,         142.,           0.
      9,        23.75,           0.,         900.
     10,           0.,           0.,         870.
     11,           0.,           0.,         840.
     12,           0.,           0.,         810.
     13,           0.,           0.,         780.
     14,           0.,           0.,         750.
     15,           0.,           0.,         720.
     16,           0.,           0.,         690.
     17,           0.,           0.,         660.
     18,           0.,           0.,         630.
     19,           0.,           0.,         600.
     20,           0.,           0.,         570.
** ... 290 like lines cut
*Element, type=S4
 1,   1,   9, 137,  68
 2,   9,   2,  10, 137
 3,  68, 137, 138,  67
 4, 137,  10,  11, 138
 5,  67, 138, 139,  66
 6, 138,  11,  12, 139
 7,  66, 139, 140,  65
 8, 139,  12,  13, 140
 9,  65, 140, 141,  64
10, 140,  13,  14, 141
11,  64, 141, 142,  63
12, 141,  14,  15, 142
13,  63, 142, 143,  62
14, 142,  15,  16, 143
15,  62, 143, 144,  61
16, 143,  16,  17, 144
17,  61, 144, 145,  60
18, 144,  17,  18, 145
19,  60, 145, 146,  59
20, 145,  18,  19, 146
** ... 250 like lines cut
*Nset, nset=Web
   2,   3,   5,   6,  10,  11,  12,  13,  14,  15,  16,  17,  18,  19,  20,  21
  22,  23,  24,  25,  26,  27,  28,  29,  30,  31,  32,  33,  34,  35,  36,  37
  38,  69,  70,  71,  72,  73,  74,  75,  76,  77,  78,  79,  80,  81,  82,  83
  84,  85,  86,  87,  88,  89,  90,  91,  92,  93,  94,  95,  96,  97,  98,  99
 100, 101, 102, 103, 104, 105, 166, 167, 168, 169, 170, 171, 172, 173, 174, 175
 176, 177, 178, 179, 180, 181, 182, 183, 184, 185, 186, 187, 188, 189, 190, 191
 192, 193, 194, 195, 196, 197, 198, 199, 200, 201, 202, 203, 204, 205, 206, 207
 208, 209, 210, 211, 212, 213, 214, 215, 216, 217, 218, 219, 220, 221, 222, 223
 224, 225, 226, 227, 228, 229, 230, 231, 232, 233, 234, 235, 236, 237, 238, 239
 240, 241, 242, 243, 244, 245, 246, 247, 248, 249, 250, 251, 252, 253, 254, 255
 256, 257, 258, 259, 260, 261, 262, 263, 264, 265, 266, 267, 268, 269, 270, 271
 272, 273, 274, 275, 276, 277, 278, 279, 280, 281
*Elset, elset=Web, generate
  61,  210,    1
*Nset, nset=Flange
   1,   2,   3,   4,   5,   6,   7,   8,   9,  10,  11,  12,  13,  14,  15,  16
  17,  18,  19,  20,  21,  22,  23,  24,  25,  26,  27,  28,  29,  30,  31,  32
  33,  34,  35,  36,  37,  38,  39,  40,  41,  42,  43,  44,  45,  46,  47,  48
  49,  50,  51,  52,  53,  54,  55,  56,  57,  58,  59,  60,  61,  62,  63,  64
  65,  66,  67,  68,  73,  74,  75,  76,  77,  78,  79,  80,  81,  82,  83,  84
  85,  86,  87,  88,  89,  90,  91,  92,  93,  94,  95,  96,  97,  98,  99, 100
 101, 106, 107, 108, 109, 110, 111, 112, 113, 114, 115, 116, 117, 118, 119, 120
 121, 122, 123, 124, 125, 126, 127, 128, 129, 130, 131, 132, 133, 134, 135, 136
 137, 138, 139, 140, 141, 142, 143, 144, 145, 146, 147, 148, 149, 150, 151, 152
 153, 154, 155, 156, 157, 158, 159, 160, 161, 162, 163, 164, 165, 282, 283, 284
 285, 286, 287, 288, 289, 290, 291, 292, 293, 294, 295, 296, 297, 298, 299, 300
 301, 302, 303, 304, 305, 306, 307, 308, 309, 310
*Elset, elset=Flange
   1,   2,   3,   4,   5,   6,   7,   8,   9,  10,  11,  12,  13,  14,  15,  16
  17,  18,  19,  20,  21,  22,  23,  24,  25,  26,  27,  28,  29,  30,  31,  32
  33,  34,  35,  36,  37,  38,  39,  40,  41,  42,  43,  44,  45,  46,  47,  48
  49,  50,  51,  52,  53,  54,  55,  56,  57,  58,  59,  60, 211, 212, 213, 214
 215, 216, 217, 218, 219, 220, 221, 222, 223, 224, 225, 226, 227, 228, 229, 230
 231, 232, 233, 234, 235, 236, 237, 238, 239, 240, 241, 242, 243, 244, 245, 246
 247, 248, 249, 250, 251, 252, 253, 254, 255, 256, 257, 258, 259, 260, 261, 262
 263, 264, 265, 266, 267, 268, 269, 270
** Section: Flange
*Shell Section, elset=Flange, material=Steel
8., 5
** Section: Web
*Shell Section, elset=Web, material=Steel
5., 5
*End Part
**  
**
** ASSEMBLY
**
*Assembly, name=Assembly
**  
*Instance, name=Beam-1, part=Beam
*End Instance
**  
*Nset, nset=Set-1, instance=Beam-1
   3,   4,   6,   8,  39, 102, 103, 104, 105, 136
*Elset, elset=Set-1, instance=Beam-1
  59,  60, 206, 207, 208, 209, 210, 269, 270
*Elset, elset=_EdgeLoad_E1, internal, instance=Beam-1
 211, 212
*Surface, type=ELEMENT, name=EdgeLoad
_EdgeLoad_E1, E1
*End Assembly
** 
** MATERIALS
** 
*Material, name=Steel
*Density
 7.8e-09,
*Elastic
210000., 0.3
** 
** BOUNDARY CONDITIONS
** 
** Name: Fixed Type: Displacement/Rotation
*Boundary
Set-1, 1, 1
Set-1, 2, 2
Set-1, 3, 3
Set-1, 4, 4
Set-1, 5, 5
Set-1, 6, 6
** ----------------------------------------------------------------
** 
** STEP: Load
** 
*Step, name=Load, nlgeom=NO
*Static
0.1, 1., 1e-05, 1.
** 
** LOADS
** 
** Name: Load   Type: Shell edge load
*Dsload
EdgeLoad, EDTRA, -216.
** 
** OUTPUT REQUESTS
** 
*Restart, write, frequency=0
** 
** FIELD OUTPUT: F-Output-1
** 
*Output, field, variable=PRESELECT
** 
** HISTORY OUTPUT: H-Output-1
** 
*Output, history, variable=PRESELECT
*End Step
