*Heading
** Job name: BEAM_HOLES_12_5 Model name: BEAM_HOLES
** Generated by: Abaqus/CAE 2022
*Preprint, echo=NO, model=NO, history=NO, contact=NO
**
** PARTS
**
*Part, name=Beam
*Node
      1,        -850.,           0.,         100.
      2,        -850.,           0.,           0.
      3,        -850.,         -75.,           0.
      4,        -850.,         -75.,         100.
      5,       -887.5,           0.,         100.
      6,       -887.5,           0.,           0.
      7,  -898.483521,  -26.5165043,           0.
      8,  -898.483521,  -26.5165043,         100.
      9,        -925.,        -37.5,         100.
     10,        -925.,        -37.5,           0.
     11,  -951.516479,  -26.5165043,           0.
     12,  -951.516479,  -26.5165043,         100.
     13,        -925.,         -75.,           0.
     14,       -1000.,         -75.,           0.
     15,       -1000.,         -75.,         100.
     16,        -925.,         -75.,         100.
     17,        -850.,          75.,         100.
     18,        -850.,          75.,           0.
     19,  -898.483521,   26.5165043,         100.
     20,  -898.483521,   26.5165043,           0.
** ... 19279 like lines cut
*Element, type=C3D8R
  1,    1,   69, 1195,   92,  121, 1305, 7659, 1265
  2,   69,   70, 1196, 1195, 1305, 1306, 7660, 7659
  3,   70,   71, 1197, 1196, 1306, 1307, 7661, 7660
  4,   71,   72, 1198, 1197, 1307, 1308, 7662, 7661
  5,   72,   73, 1199, 1198, 1308, 1309, 7663, 7662
  6,   73,   74, 1200, 1199, 1309, 1310, 7664, 7663
  7,   74,   75, 1201, 1200, 1310, 1311, 7665, 7664
  8,   75,    2,   76, 1201, 1311,  132, 1285, 7665
  9,   92, 1195, 1202,   91, 1265, 7659, 7666, 1266
 10, 1195, 1196, 1203, 1202, 7659, 7660, 7667, 7666
 11, 1196, 1197, 1204, 1203, 7660, 7661, 7668, 7667
 12, 1197, 1198, 1205, 1204, 7661, 7662, 7669, 7668
 13, 1198, 1199, 1206, 1205, 7662, 7663, 7670, 7669
 14, 1199, 1200, 1207, 1206, 7663, 7664, 7671, 7670
 15, 1200, 1201, 1208, 1207, 7664, 7665, 7672, 7671
 16, 1201,   76,   77, 1208, 7665, 1285, 1286, 7672
 17,   91, 1202, 1209,   90, 1266, 7666, 7673, 1267
 18, 1202, 1203, 1210, 1209, 7666, 7667, 7674, 7673
 19, 1203, 1204, 1211, 1210, 7667, 7668, 7675, 7674
 20, 1204, 1205, 1212, 1211, 7668, 7669, 7676, 7675
** ... 15532 like lines cut
*Nset, nset=Fixed
   65,   66,   67,   68,  910,  911,  912,  913,  914,  915,  916, 1067, 1068, 1069, 1070, 1071
 1072, 1073, 1149, 1150, 1151, 1152, 1153, 1154, 1155, 1156, 1157, 1158, 1159, 1160, 1161, 1162
 1163, 1164, 1165, 1166, 1167, 1168, 1169, 1170, 5794, 5795, 5796, 5797, 5798, 5799, 5800, 5801
 5802, 5803, 5804, 5805, 5806, 5807, 5808, 5809, 5810, 5811, 5812, 5813, 5814, 5815, 5816, 5817
 5818, 5819, 5820, 5821, 5822, 5823, 5824, 5825, 5826, 5827, 5828, 5829, 5830, 5831, 5832, 5833
 5834, 5835, 5836, 5837, 5838, 5839, 5840, 5841, 5842, 5843, 5844, 5845, 5846, 5847, 5848, 5849
 5850, 5851, 5852, 5853, 5854, 5855, 5856, 5857, 5858, 5859, 5860, 5861, 5862, 5863, 5864, 5865
 5866, 5867, 5868, 5869, 5870
*Elset, elset=Fixed, generate
  8076,  15296,     76
*Nset, nset=Whole, generate
     1,  19299,      1
*Elset, elset=Whole, generate
     1,  15552,      1
** Section: BeamSection
*Solid Section, elset=Whole, material=Wood
,
*End Part
**  
**
** ASSEMBLY
**
*Assembly, name=Assembly
**  
*Instance, name=Beam-1, part=Beam
*End Instance
**  
*Nset, nset=HoleFixU2, instance=Beam-1
    5,    6,   19,   20,   21,   22,   27,   28,   31,   32,   93,   94,   95,   96,   97,   98
   99,  206,  207,  208,  209,  210,  211,  212,  213,  214,  215,  216,  217,  218,  219,  220
  221,  222,  231,  232,  233,  234,  235,  236,  237,  238,  239,  240,  241,  242,  243,  278
  279,  280,  281,  282,  283,  284,  312,  313,  314,  315,  316,  317,  318,  319,  320,  321
  322,  323,  324,  339,  340,  341,  342,  343,  344, 1518, 1519, 1520, 1521, 1522, 1523, 1524
 1525, 1526, 1527, 1528, 1529, 1530, 1531, 1532, 1533, 1534, 1535, 1536, 1537, 1538, 1539, 1540
 1541, 1542, 1543, 1544, 1545, 1546, 1547, 1548, 1549, 1550, 1551, 1552, 1621, 1622, 1623, 1624
 1625, 1626, 1627, 1628, 1629, 1630, 1631, 1632, 1633, 1634, 1635, 1636, 1637, 1638, 1639, 1640
 1641, 1830, 1831, 1832, 1833, 1834, 1835, 1836, 1837, 1838, 1839, 1840, 1841, 1842, 1843, 1844
 1845, 1846, 1847, 1848, 1849, 1850, 1924, 1925, 1926, 1927, 1928, 1929, 1930, 1931, 1932, 1933
 1934, 1935, 1936, 1937, 1938, 1939, 1940, 1941, 1942, 1943, 1944
*Elset, elset=HoleFixU2, instance=Beam-1
  593,  594,  595,  596,  597,  598,  599,  600,  601,  602,  603,  604,  605,  606,  607,  608
  609,  610,  611,  612,  613,  614,  615,  616,  617,  618,  619,  620,  621,  622,  623,  624
  625,  626,  627,  628,  629,  630,  631,  632,  633,  634,  635,  636,  637,  638,  639,  640
  641,  642,  643,  644,  645,  646,  647,  648,  649,  650,  651,  652,  653,  654,  655,  656
  657,  658,  659,  660,  661,  662,  663,  664,  665,  666,  667,  668,  669,  670,  671,  672
 1089, 1090, 1091, 1092, 1093, 1094, 1095, 1096, 1097, 1098, 1099, 1100, 1101, 1102, 1103, 1104
 1105, 1106, 1107, 1108, 1109, 1110, 1111, 1112, 1113, 1114, 1115, 1116, 1117, 1118, 1119, 1120
 1249, 1250, 1251, 1252, 1253, 1254, 1255, 1256, 1257, 1258, 1259, 1260, 1261, 1262, 1263, 1264
 1265, 1266, 1267, 1268, 1269, 1270, 1271, 1272, 1273, 1274, 1275, 1276, 1277, 1278, 1279, 1280
*Nset, nset=HoleU1Fixed, instance=Beam-1
    9,   10,   11,   12,   21,   22,   27,   28,   31,   32,  133,  134,  135,  136,  137,  138
  139,  140,  141,  142,  143,  144,  145,  146,  147,  148,  149,  150,  151,  152,  231,  232
  233,  234,  235,  236,  237,  278,  279,  280,  281,  282,  283,  284,  285,  286,  287,  288
  289,  290,  312,  313,  314,  315,  316,  317,  318,  319,  320,  321,  322,  323,  324,  339
  340,  341,  342,  343,  344, 1361, 1362, 1363, 1364, 1365, 1366, 1367, 1368, 1369, 1370, 1371
 1372, 1373, 1374, 1375, 1376, 1377, 1378, 1379, 1380, 1381, 1736, 1737, 1738, 1739, 1740, 1741
 1742, 1743, 1744, 1745, 1746, 1747, 1748, 1749, 1750, 1751, 1752, 1753, 1754, 1755, 1756, 1830
 1831, 1832, 1833, 1834, 1835, 1836, 1837, 1838, 1839, 1840, 1841, 1842, 1843, 1844, 1845, 1846
 1847, 1848, 1849, 1850, 1924, 1925, 1926, 1927, 1928, 1929, 1930, 1931, 1932, 1933, 1934, 1935
 1936, 1937, 1938, 1939, 1940, 1941, 1942, 1943, 1944
*Elset, elset=HoleU1Fixed, instance=Beam-1
  241,  242,  243,  244,  245,  246,  247,  248,  249,  250,  251,  252,  253,  254,  255,  256
  257,  258,  259,  260,  261,  262,  263,  264,  265,  266,  267,  268,  269,  270,  271,  272
  929,  930,  931,  932,  933,  934,  935,  936,  937,  938,  939,  940,  941,  942,  943,  944
  945,  946,  947,  948,  949,  950,  951,  952,  953,  954,  955,  956,  957,  958,  959,  960
 1089, 1090, 1091, 1092, 1093, 1094, 1095, 1096, 1097, 1098, 1099, 1100, 1101, 1102, 1103, 1104
 1105, 1106, 1107, 1108, 1109, 1110, 1111, 1112, 1113, 1114, 1115, 1116, 1117, 1118, 1119, 1120
 1249, 1250, 1251, 1252, 1253, 1254, 1255, 1256, 1257, 1258, 1259, 1260, 1261, 1262, 1263, 1264
 1265, 1266, 1267, 1268, 1269, 1270, 1271, 1272, 1273, 1274, 1275, 1276, 1277, 1278, 1279, 1280
*Elset, elset=_Surf-Load-Holes_S1, internal, instance=Beam-1
   769,   770,   771,   772,   773,   774,   775,   776,   777,   778,   779,   780,   781,   782,   783,   784
   785,   786,   787,   788,   789,   790,   791,   792,   793,   794,   795,   796,   797,   798,   799,   800
  7661,  7662,  7663,  7664,  7753,  7754,  7755,  7756,  7757,  7758,  7759,  7760,  7897,  7898,  7899,  7900
  7901,  7902,  7903,  7904, 14689, 14690, 14691, 14692, 14693, 14694, 14695, 14696, 14697, 14698, 14699, 14700
 14701, 14702, 14703, 14704, 14705, 14706, 14707, 14708, 14709, 14710, 14711, 14712, 14713, 14714, 14715, 14716
 14717, 14718, 14719, 14720, 14721, 14722, 14723, 14724, 14725, 14726, 14727, 14728, 14729, 14730, 14731, 14732
 14733, 14734, 14735, 14736, 14737, 14738, 14739, 14740, 14741, 14742, 14743, 14744, 14745, 14746, 14747, 14748
 14749, 14750, 14751, 14752, 14753, 14754, 14755, 14756, 14757, 14758, 14759, 14760, 14761, 14762, 14763, 14764
 14765, 14766, 14767, 14768, 14769, 14770, 14771, 14772, 14773, 14774, 14775, 14776, 14777, 14778, 14779, 14780
 14781, 14782, 14783, 14784, 14785, 14786, 14787, 14788, 14789, 14790, 14791, 14792, 14793, 14794, 14795, 14796
 14797, 14798, 14799, 14800, 14801, 14802, 14803, 14804, 14805, 14806, 14807, 14808, 14809, 14810, 14811, 14812
 14813, 14814, 14815, 14816, 14817, 14818, 14819, 14820, 14821, 14822, 14823, 14824, 14825, 14826, 14827, 14828
 14829, 14830, 14831, 14832, 14833, 14834, 14835, 14836, 14837, 14838, 14839, 14840, 14841, 14842, 14843, 14844
 14845, 14846, 14847, 14848, 14849, 14850, 14851, 14852, 14853, 14854, 14855, 14856, 14857, 14858, 14859, 14860
 14861, 14862, 14863, 14864, 14865, 14866, 14867, 14868, 14869, 14870, 14871, 14872, 14873, 14874, 14875, 14876
 14877, 14878, 14879, 14880, 14881, 14882, 14883, 14884, 14885, 14886, 14887, 14888, 14889, 14890, 14891, 14892
 14893, 14894, 14895, 14896, 14897, 14898, 14899, 14900, 14901, 14902, 14903, 14904, 14905, 14906, 14907, 14908
 14909, 14910, 14911, 14912, 14913, 14914, 14915, 14916, 14917, 14918, 14919, 14920, 14921, 14922, 14923, 14924
 14925, 14926, 14927, 14928, 14929, 14930, 14931, 14932, 14933, 14934, 14935, 14936, 14937, 14938, 14939, 14940
 14941, 14942, 14943, 14944, 14945, 14946, 14947, 14948, 14949, 14950, 14951, 14952, 14953, 14954, 14955, 14956
** ... 22 like lines cut
*Elset, elset=_Surf-Load-Holes_S3, internal, instance=Beam-1
 1281, 1282, 1283, 1284, 1285, 1286, 1287, 1288, 1377, 1378, 1379, 1380, 1381, 1382, 1383, 1384
 1473, 1474, 1475, 1476, 1477, 1478, 1479, 1480, 1569, 1570, 1571, 1572, 1573, 1574, 1575, 1576
 1665, 1666, 1667, 1668, 1669, 1670, 1671, 1672, 1761, 1762, 1763, 1764, 1765, 1766, 1767, 1768
 1857, 1858, 1859, 1860, 1861, 1862, 1863, 1864, 1953, 1954, 1955, 1956, 1957, 1958, 1959, 1960
 2049, 2050, 2051, 2052, 2053, 2054, 2055, 2056, 2145, 2146, 2147, 2148, 2149, 2150, 2151, 2152
 2241, 2242, 2243, 2244, 2245, 2246, 2247, 2248, 2337, 2338, 2339, 2340, 2341, 2342, 2343, 2344
 2433, 2434, 2435, 2436, 2437, 2438, 2439, 2440, 2529, 2530, 2531, 2532, 2533, 2534, 2535, 2536
 2625, 2626, 2627, 2628, 2629, 2630, 2631, 2632, 2721, 2722, 2723, 2724, 2725, 2726, 2727, 2728
 2817, 2818, 2819, 2820, 2821, 2822, 2823, 2824, 2913, 2914, 2915, 2916, 2917, 2918, 2919, 2920
 3009, 3010, 3011, 3012, 3013, 3014, 3015, 3016, 3105, 3106, 3107, 3108, 3109, 3110, 3111, 3112
 3201, 3202, 3203, 3204, 3205, 3206, 3207, 3208, 3297, 3298, 3299, 3300, 3301, 3302, 3303, 3304
 3393, 3394, 3395, 3396, 3397, 3398, 3399, 3400, 3489, 3490, 3491, 3492, 3493, 3494, 3495, 3496
 3585, 3586, 3587, 3588, 3589, 3590, 3591, 3592, 3681, 3682, 3683, 3684, 3685, 3686, 3687, 3688
 3777, 3778, 3779, 3780, 3781, 3782, 3783, 3784, 3873, 3874, 3875, 3876, 3877, 3878, 3879, 3880
 3969, 3970, 3971, 3972, 3973, 3974, 3975, 3976, 4065, 4066, 4067, 4068, 4069, 4070, 4071, 4072
 4161, 4162, 4163, 4164, 4165, 4166, 4167, 4168, 4257, 4258, 4259, 4260, 4261, 4262, 4263, 4264
 4353, 4354, 4355, 4356, 4357, 4358, 4359, 4360, 4449, 4450, 4451, 4452, 4453, 4454, 4455, 4456
 4545, 4546, 4547, 4548, 4549, 4550, 4551, 4552, 4641, 4642, 4643, 4644, 4645, 4646, 4647, 4648
 4737, 4738, 4739, 4740, 4741, 4742, 4743, 4744, 4833, 4834, 4835, 4836, 4837, 4838, 4839, 4840
 4929, 4930, 4931, 4932, 4933, 4934, 4935, 4936, 5025, 5026, 5027, 5028, 5029, 5030, 5031, 5032
** ... 12 like lines cut
*Elset, elset=_Surf-Load-Holes_S6, internal, instance=Beam-1, generate
 15457,  15541,     12
*Elset, elset=_Surf-Load-Holes_S2, internal, instance=Beam-1, generate
 1121,  1152,     1
*Elset, elset=_Surf-Load-Holes_S4, internal, instance=Beam-1
 7436, 7448, 7460, 7472, 7484, 7496, 7508, 7520, 7532, 7544, 7556, 7568, 7580, 7592, 7604, 7616
 7772, 7784, 7796, 7808, 7916, 7928, 7940, 7952, 7964, 7976, 7988, 8000
*Surface, type=ELEMENT, name=Surf-Load-Holes
_Surf-Load-Holes_S1, S1
_Surf-Load-Holes_S3, S3
_Surf-Load-Holes_S6, S6
_Surf-Load-Holes_S2, S2
_Surf-Load-Holes_S4, S4
*End Assembly
** 
** MATERIALS
** 
*Material, name=Wood
*Elastic
10000., 0.3
** ----------------------------------------------------------------
** 
** STEP: BeamLoad
** 
*Step, name=BeamLoad, nlgeom=NO
*Static
0.1, 1., 1e-05, 1.
** 
** BOUNDARY CONDITIONS
** 
** Name: Fixed Type: Displacement/Rotation
*Boundary
Beam-1.Fixed, 1, 1
Beam-1.Fixed, 2, 2
Beam-1.Fixed, 3, 3
** Name: HoleU1Fixed Type: Displacement/Rotation
*Boundary
HoleU1Fixed, 1, 1
** Name: HoleVertical Type: Displacement/Rotation
*Boundary
HoleFixU2, 2, 2
** 
** LOADS
** 
** Name: Pressure   Type: Pressure
*Dsload
Surf-Load-Holes, P, 0.1
** 
** OUTPUT REQUESTS
** 
*Restart, write, frequency=0
** 
** FIELD OUTPUT: F-Output-1
** 
*Output, field, variable=PRESELECT
** 
** HISTORY OUTPUT: H-Output-1
** 
*Output, history, variable=PRESELECT
*End Step
