*Heading
** Job name: Deform Model name: BEAM
** Generated by: Abaqus/CAE 2022
*Preprint, echo=NO, model=NO, history=NO, contact=NO
**
** PARTS
**
*Part, name=Beam
*Node
      1,        1000.,          75.,         100.
      2,        1000.,          25.,         100.
      3,        1000.,         -25.,         100.
      4,        1000.,         -75.,         100.
      5,        1000.,          75.,          50.
      6,        1000.,          25.,          50.
      7,        1000.,         -25.,          50.
      8,        1000.,         -75.,          50.
      9,        1000.,          75.,           0.
     10,        1000.,          25.,           0.
     11,        1000.,         -25.,           0.
     12,        1000.,         -75.,           0.
     13,         950.,          75.,         100.
     14,         950.,          25.,         100.
     15,         950.,         -25.,         100.
     16,         950.,         -75.,         100.
     17,         950.,          75.,          50.
     18,         950.,          25.,          50.
     19,         950.,         -25.,          50.
     20,         950.,         -75.,          50.
** ... 472 like lines cut
*Element, type=C3D8R
  1,  13,  14,  18,  17,   1,   2,   6,   5
  2,  14,  15,  19,  18,   2,   3,   7,   6
  3,  15,  16,  20,  19,   3,   4,   8,   7
  4,  17,  18,  22,  21,   5,   6,  10,   9
  5,  18,  19,  23,  22,   6,   7,  11,  10
  6,  19,  20,  24,  23,   7,   8,  12,  11
  7,  25,  26,  30,  29,  13,  14,  18,  17
  8,  26,  27,  31,  30,  14,  15,  19,  18
  9,  27,  28,  32,  31,  15,  16,  20,  19
 10,  29,  30,  34,  33,  17,  18,  22,  21
 11,  30,  31,  35,  34,  18,  19,  23,  22
 12,  31,  32,  36,  35,  19,  20,  24,  23
 13,  37,  38,  42,  41,  25,  26,  30,  29
 14,  38,  39,  43,  42,  26,  27,  31,  30
 15,  39,  40,  44,  43,  27,  28,  32,  31
 16,  41,  42,  46,  45,  29,  30,  34,  33
 17,  42,  43,  47,  46,  30,  31,  35,  34
 18,  43,  44,  48,  47,  31,  32,  36,  35
 19,  49,  50,  54,  53,  37,  38,  42,  41
 20,  50,  51,  55,  54,  38,  39,  43,  42
** ... 220 like lines cut
*Nset, nset=Fixed, generate
  1,  12,   1
*Elset, elset=Fixed, generate
 1,  6,  1
*Nset, nset=Whole, generate
   1,  492,    1
*Elset, elset=Whole, generate
   1,  240,    1
** Section: BeamSection
*Solid Section, elset=Whole, material=Wood
,
*End Part
**  
**
** ASSEMBLY
**
*Assembly, name=Assembly
**  
*Instance, name=Beam-1, part=Beam
*End Instance
**  
*Elset, elset=_BeamLoad_S6, internal, instance=Beam-1, generate
   1,  238,    3
*Surface, type=ELEMENT, name=BeamLoad
_BeamLoad_S6, S6
*Elset, elset=_BeamLoad1_S6, internal, instance=Beam-1, generate
   1,  238,    3
*Surface, type=ELEMENT, name=BeamLoad1
_BeamLoad1_S6, S6
*End Assembly
** 
** MATERIALS
** 
*Material, name=Wood
*Elastic
10000., 0.3
** ----------------------------------------------------------------
** 
** STEP: BeamLoad
** 
*Step, name=BeamLoad, nlgeom=NO
*Static
0.1, 1., 1e-05, 1.
** 
** BOUNDARY CONDITIONS
** 
** Name: Fixed Type: Displacement/Rotation
*Boundary
Beam-1.Fixed, 1, 1
Beam-1.Fixed, 2, 2
Beam-1.Fixed, 3, 3
** 
** LOADS
** 
** Name: Pressure   Type: Pressure
*Dsload
BeamLoad1, P, 0.025
** 
** OUTPUT REQUESTS
** 
*Restart, write, frequency=0
** 
** FIELD OUTPUT: F-Output-1
** 
*Output, field, variable=PRESELECT
** 
** HISTORY OUTPUT: H-Output-1
** 
*Output, history, variable=PRESELECT
*End Step
