*Heading
** Job name: Axisymm_Spherical_5 Model name: Axisymm_Spherical
** Generated by: Abaqus/CAE 2022
*Preprint, echo=NO, model=NO, history=NO, contact=NO
**
** PARTS
**
*Part, name=Axisymm_Spherical
*End Part
**  
**
** ASSEMBLY
**
*Assembly, name=Assembly
**  
*Instance, name=Axisymm_Spherical-1, part=Axisymm_Spherical
*Node
      1,          76.,   177.230164
      2,   85.0218506,   181.630249
      3,          80.,         190.
      4,          76.,         190.
      5,         100.,   137.230164
      6,         110.,         140.
      7,         100.,          10.
      8,         110.,          10.
      9,         100.,          30.
     10,          80.,         220.
     11,           0.,         300.
     12,          76.,         220.
     13,           0.,         296.
     14,         100.,           0.
     15,         150.,           0.
     16,         150.,          10.
     17,   77.8043671,   178.110184
     18,   79.6087418,   178.990204
     19,   81.4131088,   179.870209
     20,   83.2174759,   180.750229
** ... 1880 like lines cut
*Element, type=CAX4R
 1, 664, 676, 687, 669
 2, 688, 678, 665, 670
 3, 666, 670,  35,  36
 4,  23, 663, 660,  22
 5,  22, 660, 675,  21
 6,  20,   2,  21, 675
 7, 660, 663, 679, 686
 8, 665, 664,  33,  34
 9,  25, 662, 661,  24
10, 676, 673, 671, 687
11, 662, 671, 673, 661
12, 657, 672,  27,  28
13,  31,  32, 669, 658
14, 658,  30,   4,  31
15, 663, 674, 677, 679
16,  36,  37, 667, 666
17,  18, 684, 668,  17
18,  17, 668,  38,   1
19,   3,  27, 672,  26
20,  28,  29, 659, 657
** ... 1559 like lines cut
*Nset, nset=Bolt_flange
  14,  15, 610, 611, 612, 613, 614, 615, 616, 617, 618, 619, 620, 621, 622, 623
 624, 625, 626, 627, 628, 629, 630, 631, 632, 633
*Elset, elset=Bolt_flange, generate
 1459,  1579,     5
*Nset, nset=_PickedSet6, internal, generate
    1,  1900,     1
*Elset, elset=_PickedSet6, internal, generate
    1,  1579,     1
*Nset, nset=Set-1
   7,   9,  14, 154, 155, 156, 157, 158, 159, 160, 161, 162, 606, 607, 608, 609
*Elset, elset=Set-1
  160,  165,  170,  175,  180,  185,  190,  195,  200,  205, 1455, 1456, 1457, 1458, 1459
*Elset, elset=_Surf-1_S4, internal
    4,    5,    9,   19, 1480, 1485, 1490, 1495, 1500, 1505, 1510, 1515, 1520, 1525, 1530, 1535
 1540, 1545, 1550, 1555, 1560, 1565, 1570, 1575
*Elset, elset=_Surf-1_S2, internal
    6,   25,   49,   54,   59,   64,   69,   74,   79,   84,   89,   94,   99,  104,  109,  114
  119,  124,  129,  134,  139,  144,  149,  154,  159,  164,  169,  174,  179,  184,  189,  194
  199,  204,  209,  214,  219,  224,  229,  234,  239,  244,  249,  254,  259,  264,  269,  274
  279,  284,  289,  294,  299,  304,  309,  314,  319,  324,  329,  334,  339,  344,  349,  354
  359,  364,  369,  374,  379,  384,  389,  394,  399,  404,  409,  414,  419,  424,  429,  434
  439,  444,  449,  454,  459,  464,  469,  474,  479,  484,  489,  494,  499,  504,  509,  514
  519,  524,  529,  534,  539,  544,  549,  554,  559,  564,  569,  574,  579,  584,  589,  594
  599,  604,  609,  614,  619,  624,  629,  634,  639,  644,  649,  654,  659,  664,  669,  674
  679,  684,  689,  694,  699,  704,  709,  714,  719,  724,  729,  734,  739,  744,  749,  754
  759,  764,  769,  774,  779,  784,  789,  794,  799,  804,  809,  814,  819,  824,  829,  834
  839,  844,  849,  854,  859,  864,  869,  874,  879,  884,  889,  894,  899,  904,  909,  914
  919,  924,  929,  934,  939,  944,  949,  954,  959,  964,  969,  974,  979,  984,  989,  994
  999, 1004, 1009, 1014, 1019, 1024, 1029, 1034, 1039, 1044, 1049, 1054, 1059, 1064, 1069, 1074
 1079, 1084, 1089, 1094, 1099, 1104, 1109, 1114, 1119, 1124, 1129, 1134, 1139, 1144, 1149, 1154
 1159, 1164, 1169, 1174, 1179, 1184, 1189, 1194, 1199, 1204, 1209, 1214, 1219, 1224, 1229, 1234
 1239, 1244, 1249, 1254, 1259, 1264, 1269, 1274, 1279, 1284, 1289, 1294, 1299, 1304, 1309, 1314
 1319, 1324, 1329, 1334, 1339, 1344, 1349, 1354, 1359, 1364, 1369, 1374, 1379, 1384, 1389, 1394
 1399, 1404, 1409, 1414, 1419, 1424, 1429, 1434, 1439, 1444, 1449, 1454
*Elset, elset=_Surf-1_S1, internal
 24,
*Surface, type=ELEMENT, name=Surf-1
_Surf-1_S4, S4
_Surf-1_S2, S2
_Surf-1_S1, S1
** Section: AxiSection
*Solid Section, elset=_PickedSet6, material="Titanium Ti-6Al-4V"
,
*End Instance
**  
*End Assembly
** 
** MATERIALS
** 
*Material, name="Titanium Ti-6Al-4V"
*Density
 4.43e-09,
*Elastic
113800., 0.342
** 
** BOUNDARY CONDITIONS
** 
** Name: InnerEdge Type: Displacement/Rotation
*Boundary
Axisymm_Spherical-1.Set-1, 1, 1
** Name: RadialConstrain Type: Displacement/Rotation
*Boundary
Axisymm_Spherical-1.Bolt_flange, 1, 1
Axisymm_Spherical-1.Bolt_flange, 2, 2
** ----------------------------------------------------------------
** 
** STEP: Loadstep
** 
*Step, name=Loadstep, nlgeom=NO
*Static
1., 1., 1e-05, 1.
** 
** LOADS
** 
** Name: PressureLoad   Type: Pressure
*Dsload
Axisymm_Spherical-1.Surf-1, P, 19.62
** 
** OUTPUT REQUESTS
** 
*Restart, write, frequency=0
** 
** FIELD OUTPUT: F-Output-1
** 
*Output, field, variable=PRESELECT
** 
** HISTORY OUTPUT: H-Output-2
** 
*Output, history
*Node Output, nset=Axisymm_Spherical-1.Bolt_flange
RF2, 
** 
** HISTORY OUTPUT: H-Output-1
** 
*Output, history, variable=PRESELECT
*End Step
