*Heading
** Job name: Axisymm_Flattop_5 Model name: Axisymm_Flattop
** Generated by: Abaqus/CAE 2022
*Preprint, echo=NO, model=NO, history=NO, contact=NO
**
** PARTS
**
*Part, name=Axisymm_Spherical
*End Part
**  
**
** ASSEMBLY
**
*Assembly, name=Assembly
**  
*Instance, name=Axisymm_Spherical-1, part=Axisymm_Spherical
*Node
      1,          80.,   296.003418
      2,          76.,         296.
      3,          76.,         220.
      4,          76.,         190.
      5,          80.,         220.
      6,          80.,         190.
      7,          76.,         300.
      8,          80.,         300.
      9,           0.,         300.
     10,           0.,         296.
     11,          76.,   177.230164
     12,   85.0218506,   181.630249
     13,         100.,   137.230164
     14,         110.,         140.
     15,         100.,          10.
     16,         110.,          10.
     17,         100.,          30.
     18,         100.,           0.
     19,         150.,           0.
     20,         150.,          10.
** ... 2116 like lines cut
*Element, type=CAX4R
  1,    1,   21,  743,  253
  2,   21,   22,  744,  743
  3,   22,   23,  745,  744
  4,   23,   24,  746,  745
  5,   24,    2,   25,  746
  6,  253,  743,  747,  252
  7,  743,  744,  748,  747
  8,  744,  745,  749,  748
  9,  745,  746,  750,  749
 10,  746,   25,   26,  750
 11,  252,  747,  751,  251
 12,  747,  748,  752,  751
 13,  748,  749,  753,  752
 14,  749,  750,  754,  753
 15,  750,   26,   27,  754
 16,  251,  751,  755,  250
 17,  751,  752,  756,  755
 18,  752,  753,  757,  756
 19,  753,  754,  758,  757
 20,  754,   27,   28,  758
** ... 1756 like lines cut
*Nset, nset=Bolt_flange
  18,  19, 696, 697, 698, 699, 700, 701, 702, 703, 704, 705, 706, 707, 708, 709
 710, 711, 712, 713, 714, 715, 716, 717, 718, 719
*Elset, elset=Bolt_flange, generate
 1656,  1776,     5
*Nset, nset=_PickedSet6, internal, generate
    1,  2136,     1
*Elset, elset=_PickedSet6, internal, generate
    1,  1776,     1
*Nset, nset=Set-1
  15,  17,  18, 630, 631, 632, 633, 634, 635, 636, 637, 638, 692, 693, 694, 695
*Elset, elset=Set-1
 1332, 1337, 1342, 1347, 1352, 1357, 1362, 1367, 1372, 1377, 1652, 1653, 1654, 1655, 1656
*Elset, elset=_Surf-1_S4, internal
    1,    6,   11,   16,   21,   26,   31,   36,   41,   46,   51,   56,   61,   66,   71,   76
   81,   86,   91,   96,  101,  106,  111,  116,  121,  126,  131,  136,  141,  146,  151,  156
  161,  166,  171,  176,  181,  186,  191,  196,  201,  206,  211,  216,  221,  226,  231,  236
  241,  246,  251,  256,  261,  266,  271,  276,  281,  286,  291,  296,  301,  306,  311,  316
  321,  326,  331,  336,  341,  346,  351,  356,  361,  366,  371,  376,  381,  386,  391,  396
  401,  406,  411,  416,  421,  426,  431,  436,  441,  446,  451,  456,  461,  466,  471,  476
  481,  486,  491,  496,  501,  506,  511,  516,  521,  526,  531,  536,  541,  546,  551,  556
  561,  566,  571,  576,  581,  586,  591,  596,  601,  606,  611,  616,  621,  626,  631,  636
  641,  646,  651,  656,  661,  666,  671,  676,  681,  686, 1167, 1169, 1172, 1176, 1197, 1677
 1682, 1687, 1692, 1697, 1702, 1707, 1712, 1717, 1722, 1727, 1732, 1737, 1742, 1747, 1752, 1757
 1762, 1767, 1772
*Elset, elset=_Surf-1_S3, internal, generate
 686,  690,    1
*Elset, elset=_Surf-1_S2, internal
  695,  700,  705,  710,  715,  720,  725,  730,  735,  740,  745,  750,  755,  760,  765,  770
  775,  780,  785,  790,  795,  800,  805,  810,  815,  820,  825,  830,  835,  840,  845,  850
  855,  860,  865,  870,  875,  880,  885,  890,  895,  900,  905,  910,  915,  920,  925,  930
  935,  940,  945,  950,  955,  960,  965,  970,  975,  980,  985,  990,  995, 1000, 1005, 1010
 1015, 1020, 1025, 1030, 1035, 1040, 1045, 1050, 1055, 1060, 1065, 1070, 1075, 1080, 1085, 1090
 1095, 1100, 1105, 1110, 1115, 1120, 1125, 1130, 1135, 1140, 1145, 1150, 1155, 1160, 1165, 1168
 1170, 1193, 1221, 1226, 1231, 1236, 1241, 1246, 1251, 1256, 1261, 1266, 1271, 1276, 1281, 1286
 1291, 1296, 1301, 1306, 1311, 1316, 1321, 1326, 1331, 1336, 1341, 1346, 1351, 1356, 1361, 1366
 1371, 1376, 1381, 1386, 1391, 1396, 1401, 1406, 1411, 1416, 1421, 1426, 1431, 1436, 1441, 1446
 1451, 1456, 1461, 1466, 1471, 1476, 1481, 1486, 1491, 1496, 1501, 1506, 1511, 1516, 1521, 1526
 1531, 1536, 1541, 1546, 1551, 1556, 1561, 1566, 1571, 1576, 1581, 1586, 1591, 1596, 1601, 1606
 1611, 1616, 1621, 1626, 1631, 1636, 1641, 1646, 1651
*Surface, type=ELEMENT, name=Surf-1
_Surf-1_S4, S4
_Surf-1_S3, S3
_Surf-1_S2, S2
** Section: AxiSection
*Solid Section, elset=_PickedSet6, material="Titanium Ti-6Al-4V"
,
*End Instance
**  
*End Assembly
** 
** MATERIALS
** 
*Material, name="Titanium Ti-6Al-4V"
*Density
 4.43e-09,
*Elastic
113800., 0.342
** 
** BOUNDARY CONDITIONS
** 
** Name: InnerEdge Type: Displacement/Rotation
*Boundary
Axisymm_Spherical-1.Set-1, 1, 1
** Name: RadialConstrain Type: Displacement/Rotation
*Boundary
Axisymm_Spherical-1.Bolt_flange, 1, 1
Axisymm_Spherical-1.Bolt_flange, 2, 2
** ----------------------------------------------------------------
** 
** STEP: Loadstep
** 
*Step, name=Loadstep, nlgeom=NO
*Static
1., 1., 1e-05, 1.
** 
** LOADS
** 
** Name: PressureLoad   Type: Pressure
*Dsload
Axisymm_Spherical-1.Surf-1, P, 19.62
** 
** OUTPUT REQUESTS
** 
*Restart, write, frequency=0
** 
** FIELD OUTPUT: F-Output-1
** 
*Output, field, variable=PRESELECT
** 
** HISTORY OUTPUT: H-Output-2
** 
*Output, history
*Node Output, nset=Axisymm_Spherical-1.Bolt_flange
RF2, 
** 
** HISTORY OUTPUT: H-Output-1
** 
*Output, history, variable=PRESELECT
*End Step
