*Heading
** Job name: Deform Model name: BEAM_2D
** Generated by: Abaqus/CAE 2022
*Preprint, echo=NO, model=NO, history=NO, contact=NO
**
** PARTS
**
*Part, name=Beam
*Node
      1,       -1100.,          50.
      2,       -1050.,          50.
      3,       -1000.,          50.
      4,        -950.,          50.
      5,        -900.,          50.
      6,        -850.,          50.
      7,        -800.,          50.
      8,        -750.,          50.
      9,        -700.,          50.
     10,        -650.,          50.
     11,        -600.,          50.
     12,        -550.,          50.
     13,        -500.,          50.
     14,        -450.,          50.
     15,        -400.,          50.
     16,        -350.,          50.
     17,        -300.,          50.
     18,        -250.,          50.
     19,        -200.,          50.
     20,        -150.,          50.
** ... 144 like lines cut
*Element, type=CPS4
  1,   1,   2,  43,  42
  2,   2,   3,  44,  43
  3,   3,   4,  45,  44
  4,   4,   5,  46,  45
  5,   5,   6,  47,  46
  6,   6,   7,  48,  47
  7,   7,   8,  49,  48
  8,   8,   9,  50,  49
  9,   9,  10,  51,  50
 10,  10,  11,  52,  51
 11,  11,  12,  53,  52
 12,  12,  13,  54,  53
 13,  13,  14,  55,  54
 14,  14,  15,  56,  55
 15,  15,  16,  57,  56
 16,  16,  17,  58,  57
 17,  17,  18,  59,  58
 18,  18,  19,  60,  59
 19,  19,  20,  61,  60
 20,  20,  21,  62,  61
** ... 100 like lines cut
*Nset, nset=Whole, generate
   1,  164,    1
*Elset, elset=Whole, generate
   1,  120,    1
*Nset, nset=Fixed, generate
  41,  164,   41
*Elset, elset=Fixed, generate
  40,  120,   40
** Section: BeamSection
*Solid Section, elset=Whole, material=Wood
100.,
*End Part
**  
**
** ASSEMBLY
**
*Assembly, name=Assembly
**  
*Instance, name=Beam-1, part=Beam
*End Instance
**  
*Elset, elset=_BeamLoad_S3, internal, instance=Beam-1, generate
  81,  120,    1
*Surface, type=ELEMENT, name=BeamLoad
_BeamLoad_S3, S3
*End Assembly
** 
** MATERIALS
** 
*Material, name=Wood
*Elastic
10000., 0.3
** 
** BOUNDARY CONDITIONS
** 
** Name: Fixed Type: Displacement/Rotation
*Boundary
Beam-1.Fixed, 1, 1
Beam-1.Fixed, 2, 2
** ----------------------------------------------------------------
** 
** STEP: BeamLoad
** 
*Step, name=BeamLoad, nlgeom=NO
*Static
0.1, 1., 1e-05, 1.
** 
** LOADS
** 
** Name: Pressure   Type: Pressure
*Dsload
BeamLoad, P, 0.025
** 
** OUTPUT REQUESTS
** 
*Restart, write, frequency=0
** 
** FIELD OUTPUT: F-Output-1
** 
*Output, field, variable=PRESELECT
** 
** HISTORY OUTPUT: H-Output-1
** 
*Output, history, variable=PRESELECT
*End Step
