*Heading
** Job name: Deform_hole Model name: BEAM_2D_HOLE
** Generated by: Abaqus/CAE 2022
*Preprint, echo=NO, model=NO, history=NO, contact=NO
**
** PARTS
**
*Part, name=Beam
*Node
      1,        -950.,         125.
      2,       -987.5,         125.
      3,  -991.458984,   108.229492
      4,  -998.483521,   98.4834976
      5,        -950.,          50.
      6,      -1062.5,         125.
      7,       -1100.,         125.
      8,       -1100.,          50.
      9,  -1051.51648,   98.4834976
     10,         900.,          50.
     11,         900.,         200.
     12,        -950.,         200.
     13,       -1025.,         87.5
     14,       -1025.,          50.
     15,  -998.483521,    151.51651
     16,       -1025.,         200.
     17,       -1025.,        162.5
     18,  -1051.51648,    151.51651
     19,       -1100.,         200.
     20,     -959.375,         125.
** ... 1778 like lines cut
*Element, type=CPS4
 1,   1,  20, 398,  32
 2,  20,  21, 399, 398
 3,  21,  22, 400, 399
 4,  22,   2,  23, 400
 5,  32, 398, 401,  31
 6, 398, 399, 402, 401
 7, 399, 400, 403, 402
 8, 400,  23,  24, 403
 9,  31, 401, 404,  30
10, 401, 402, 405, 404
11, 402, 403, 406, 405
12, 403,  24,   3, 406
13,  30, 404, 407,  29
14, 404, 405, 408, 407
15, 405, 406, 409, 408
16, 406,   3,  25, 409
17,  29, 407,  28,   5
18, 407, 408,  27,  28
19, 408, 409,  26,  27
20, 409,  25,   4,  26
** ... 1596 like lines cut
*Nset, nset=Whole, generate
    1,  1798,     1
*Elset, elset=Whole, generate
    1,  1616,     1
*Nset, nset=Fixed
  10,  11, 192, 193, 194, 195, 196, 197, 198, 199, 200
*Elset, elset=Fixed, generate
  184,  1516,   148
** Section: BeamSection
*Solid Section, elset=Whole, material=Wood
100.,
*End Part
**  
**
** ASSEMBLY
**
*Assembly, name=Assembly
**  
*Instance, name=Beam-1, part=Beam
*End Instance
**  
*Nset, nset=LeftHalf, instance=Beam-1
   6,   9,  13,  17,  18,  42,  43,  44, 371, 372, 373, 383, 384, 385, 392, 393
 394,
*Elset, elset=LeftHalf, instance=Beam-1
   21,   25,   29,   33, 1553, 1557, 1561, 1565, 1588, 1592, 1596, 1600, 1604, 1608, 1612, 1616
*Nset, nset=UpperHalf, instance=Beam-1
   2,   6,  15,  17,  18, 364, 365, 366, 367, 377, 378, 379, 383, 384, 385, 392
 393, 394
*Elset, elset=UpperHalf, instance=Beam-1
 1533, 1537, 1541, 1545, 1549, 1572, 1576, 1580, 1584, 1588, 1592, 1596, 1600, 1604, 1608, 1612
 1616,
*Elset, elset=_NewLoad_S3, internal, instance=Beam-1, generate
 1369,  1516,     1
*Elset, elset=_NewLoad_S4, internal, instance=Beam-1
 1569, 1573, 1577, 1581, 1601, 1605, 1609, 1613
*Surface, type=ELEMENT, name=NewLoad
_NewLoad_S3, S3
_NewLoad_S4, S4
*End Assembly
** 
** MATERIALS
** 
*Material, name=Wood
*Elastic
10000., 0.3
** 
** BOUNDARY CONDITIONS
** 
** Name: Fixed Type: Displacement/Rotation
*Boundary
Beam-1.Fixed, 1, 1
Beam-1.Fixed, 2, 2
** Name: HorizontalConstraint Type: Displacement/Rotation
*Boundary
LeftHalf, 1, 1
** Name: VerticalConstraint Type: Displacement/Rotation
*Boundary
UpperHalf, 2, 2
** ----------------------------------------------------------------
** 
** STEP: BeamLoad
** 
*Step, name=BeamLoad, nlgeom=NO
*Static
0.1, 1., 1e-05, 1.
** 
** LOADS
** 
** Name: Pressure   Type: Pressure
*Dsload
NewLoad, P, 0.025
** 
** OUTPUT REQUESTS
** 
*Restart, write, frequency=0
** 
** FIELD OUTPUT: F-Output-1
** 
*Output, field, variable=PRESELECT
** 
** HISTORY OUTPUT: H-Output-1
** 
*Output, history, variable=PRESELECT
*End Step
