1

   Abaqus 2024                                  Date 17-feb-2024   Time 16:31:47
   For use by POLITECNICO DI MILANO under license from Dassault Systemes or its subsidiary.

                                                                                 
                                                                                 
 STEP    1     INCREMENT     1     STEP TIME    0.00    


                        S T E P       1     C A L C U L A T I O N   O F   E I G E N V A L U E S

                                            F O R   B U C K L I N G   P R E D I C T I O N



                                                                                          

     THE SUBSPACE ITERATION METHOD IS USED FOR THIS ANALYSIS
     NUMBER OF EIGENVALUES                      3
     MAXIMUM NUMBER OF ITERATIONS                   6500
     NUMBER OF VECTORS IN ITERATION                    6
     THE BUCKLING MODE CONSTRAINTS 
      ARE DEFINED AS LOAD CASE 2
                              ONLY INITIAL STRESS EFFECTS ARE INCLUDED IN THE
                              STIFFNESS MATRIX

     THIS IS A LINEAR PERTURBATION STEP.
     ALL LOADS ARE DEFINED AS CHANGE IN LOAD TO THE REFERENCE STATE

     EXTRAPOLATION WILL NOT BE USED

     CHARACTERISTIC ELEMENT LENGTH      5.00    

     DETAILS REGARDING ACTUAL SOLUTION WAVEFRONT REQUESTED

     DETAILED OUTPUT OF DIAGNOSTICS TO DATABASE REQUESTED

     PRINT OF INCREMENT NUMBER, TIME, ETC., TO THE MESSAGE FILE EVERY     1  INCREMENTS
 
	SYMMETRIC DIRECT SPARSE SOLVER RUNNING ON
 	1 HOST x 1 MPI RANK PER HOST x 1 THREAD PER RANK
        NUMBER OF EQUATIONS:  186528
        NUMBER OF RHS:        1
        NUMBER OF FLOPS:      2.386e+10
        SOLVER ELAPSED TIME:  3.4s
 
     ITERATION 1
      1       1.008123e+07     
      2       1.165198e+08     
      3       5.351484e+08     
      4       6.030819e+08     
      5       -8.206492e+08    
      6       -1.052426e+09    
 
     NUMBER OF EIGENVALUES CONVERGED UPTO THIS ITERATION = 0
 
     ITERATION 2
      1       1.779915e+06     
      2       1.838038e+06     
      3       1.914778e+06     
      4       1.961659e+06     
      5       1.982617e+06     
      6       2.062189e+06     
 
     NUMBER OF EIGENVALUES CONVERGED UPTO THIS ITERATION = 0
 
     ITERATION 3
      1       1.359656e+06     
      2       1.383961e+06     
      3       1.428259e+06     
      4       1.476516e+06     
      5       1.512838e+06     
      6       1.558770e+06     
 
     NUMBER OF EIGENVALUES CONVERGED UPTO THIS ITERATION = 0
 
     ITERATION 4
      1       1.254015e+06     
      2       1.270288e+06     
      3       1.297515e+06     
      4       1.341983e+06     
      5       1.366397e+06     
      6       1.403633e+06     
 
     NUMBER OF EIGENVALUES CONVERGED UPTO THIS ITERATION = 0
 
     ITERATION 5
      1       1.209078e+06     
      2       1.221448e+06     
      3       1.239809e+06     
      4       1.277901e+06     
      5       1.293168e+06     
      6       1.327043e+06     
 
     NUMBER OF EIGENVALUES CONVERGED UPTO THIS ITERATION = 0
 
     ITERATION 6
      1       1.185275e+06     
      2       1.195135e+06     
      3       1.208099e+06     
      4       1.240657e+06     
      5       1.250534e+06     
      6       1.281974e+06     
 
     NUMBER OF EIGENVALUES CONVERGED UPTO THIS ITERATION = 0
 
     ITERATION 7
      1       1.170848e+06     
      2       1.179002e+06     
      3       1.188744e+06     
      4       1.216327e+06     
      5       1.223700e+06     
      6       1.252345e+06     
 
     NUMBER OF EIGENVALUES CONVERGED UPTO THIS ITERATION = 0
 
     ITERATION 8
      1       1.161289e+06     
      2       1.168159e+06     
      3       1.176185e+06     
      4       1.199248e+06     
      5       1.205826e+06     
      6       1.231288e+06     
 
     NUMBER OF EIGENVALUES CONVERGED UPTO THIS ITERATION = 0
 
     ITERATION 9
      1       1.154546e+06     
      2       1.160399e+06     
      3       1.167609e+06     
      4       1.186747e+06     
      5       1.193243e+06     
      6       1.215508e+06     
 
     NUMBER OF EIGENVALUES CONVERGED UPTO THIS ITERATION = 0
 
     ITERATION 10
      1       1.149572e+06     
      2       1.154620e+06     
      3       1.161431e+06     
      4       1.177320e+06     
      5       1.183937e+06     
      6       1.203289e+06     
 
     NUMBER OF EIGENVALUES CONVERGED UPTO THIS ITERATION = 0
 
     ITERATION 11
      1       1.145780e+06     
      2       1.150189e+06     
      3       1.156744e+06     
      4       1.170019e+06     
      5       1.176784e+06     
      6       1.193650e+06     
 
     NUMBER OF EIGENVALUES CONVERGED UPTO THIS ITERATION = 0
 
     ITERATION 12
      1       1.142816e+06     
      2       1.146706e+06     
      3       1.153026e+06     
      4       1.164229e+06     
      5       1.171123e+06     
      6       1.185964e+06     
 
     NUMBER OF EIGENVALUES CONVERGED UPTO THIS ITERATION = 0
 
     ITERATION 13
      1       1.140449e+06     
      2       1.143905e+06     
      3       1.149973e+06     
      4       1.159542e+06     
      5       1.166537e+06     
      6       1.179792e+06     
 
     NUMBER OF EIGENVALUES CONVERGED UPTO THIS ITERATION = 0
 
     ITERATION 14
      1       1.138525e+06     
      2       1.141607e+06     
      3       1.147400e+06     
      4       1.155677e+06     
      5       1.162752e+06     
      6       1.174806e+06     
 
     NUMBER OF EIGENVALUES CONVERGED UPTO THIS ITERATION = 0
 
     ITERATION 15
      1       1.136936e+06     
      2       1.139691e+06     
      3       1.145195e+06     
      4       1.152436e+06     
      5       1.159576e+06     
      6       1.170749e+06     
 
     NUMBER OF EIGENVALUES CONVERGED UPTO THIS ITERATION = 0
 
     ITERATION 16
      1       1.135605e+06     
      2       1.138070e+06     
      3       1.143284e+06     
      4       1.149678e+06     
      5       1.156874e+06     
      6       1.167420e+06     
 
     NUMBER OF EIGENVALUES CONVERGED UPTO THIS ITERATION = 0
 
     ITERATION 17
      1       1.134476e+06     
      2       1.136684e+06     
      3       1.141615e+06     
      4       1.147298e+06     
      5       1.154546e+06     
      6       1.164658e+06     
 
     NUMBER OF EIGENVALUES CONVERGED UPTO THIS ITERATION = 0
 
     ITERATION 18
      1       1.133508e+06     
      2       1.135489e+06     
      3       1.140150e+06     
      4       1.145223e+06     
      5       1.152518e+06     
      6       1.162332e+06     
 
     NUMBER OF EIGENVALUES CONVERGED UPTO THIS ITERATION = 0
 
     ITERATION 19
      1       1.132671e+06     
      2       1.134451e+06     
      3       1.138859e+06     
      4       1.143398e+06     
      5       1.150730e+06     
      6       1.160341e+06     
 
     NUMBER OF EIGENVALUES CONVERGED UPTO THIS ITERATION = 0
 
     ITERATION 20
      1       1.131940e+06     
      2       1.133544e+06     
      3       1.137717e+06     
      4       1.141784e+06     
      5       1.149138e+06     
      6       1.158606e+06     
 
     NUMBER OF EIGENVALUES CONVERGED UPTO THIS ITERATION = 0
 
     ITERATION 21
      1       1.131299e+06     
      2       1.132749e+06     
      3       1.136702e+06     
      4       1.140350e+06     
      5       1.147704e+06     
      6       1.157064e+06     
 
     NUMBER OF EIGENVALUES CONVERGED UPTO THIS ITERATION = 0
 
     ITERATION 22
      1       1.130733e+06     
      2       1.132048e+06     
      3       1.135797e+06     
      4       1.139074e+06     
      5       1.146399e+06     
      6       1.155668e+06     
 
     NUMBER OF EIGENVALUES CONVERGED UPTO THIS ITERATION = 0
 
     ITERATION 23
      1       1.130231e+06     
      2       1.131429e+06     
      3       1.134987e+06     
      4       1.137936e+06     
      5       1.145201e+06     
      6       1.154384e+06     
 
     NUMBER OF EIGENVALUES CONVERGED UPTO THIS ITERATION = 0
 
     ITERATION 24
      1       1.129783e+06     
      2       1.130879e+06     
      3       1.134257e+06     
      4       1.136918e+06     
      5       1.144092e+06     
      6       1.153183e+06     
 
     NUMBER OF EIGENVALUES CONVERGED UPTO THIS ITERATION = 0
 
     ITERATION 25
      1       1.129383e+06     
      2       1.130391e+06     
      3       1.133598e+06     
      4       1.136007e+06     
      5       1.143059e+06     
      6       1.152047e+06     
 
     NUMBER OF EIGENVALUES CONVERGED UPTO THIS ITERATION = 0
 
     ITERATION 26
      1       1.129024e+06     
      2       1.129955e+06     
      3       1.133001e+06     
      4       1.135189e+06     
      5       1.142090e+06     
      6       1.150960e+06     
 
     NUMBER OF EIGENVALUES CONVERGED UPTO THIS ITERATION = 0
 
     ITERATION 27
      1       1.128701e+06     
      2       1.129565e+06     
      3       1.132457e+06     
      4       1.134455e+06     
      5       1.141178e+06     
      6       1.149913e+06     
 
     NUMBER OF EIGENVALUES CONVERGED UPTO THIS ITERATION = 0
 
     ITERATION 28
      1       1.128409e+06     
      2       1.129215e+06     
      3       1.131960e+06     
      4       1.133793e+06     
      5       1.140315e+06     
      6       1.148897e+06     
 
     NUMBER OF EIGENVALUES CONVERGED UPTO THIS ITERATION = 0
 
     ITERATION 29
      1       1.128145e+06     
      2       1.128900e+06     
      3       1.131505e+06     
      4       1.133195e+06     
      5       1.139498e+06     
      6       1.147908e+06     
 
     NUMBER OF EIGENVALUES CONVERGED UPTO THIS ITERATION = 0
 
     ITERATION 30
      1       1.127905e+06     
      2       1.128615e+06     
      3       1.131086e+06     
      4       1.132655e+06     
      5       1.138723e+06     
      6       1.146942e+06     
 
     NUMBER OF EIGENVALUES CONVERGED UPTO THIS ITERATION = 0
 
     ITERATION 31
      1       1.127687e+06     
      2       1.128358e+06     
      3       1.130700e+06     
      4       1.132164e+06     
      5       1.137985e+06     
      6       1.145997e+06     
 
     NUMBER OF EIGENVALUES CONVERGED UPTO THIS ITERATION = 0
 
     ITERATION 32
      1       1.127488e+06     
      2       1.128124e+06     
      3       1.130344e+06     
      4       1.131717e+06     
      5       1.137284e+06     
      6       1.145073e+06     
 
     NUMBER OF EIGENVALUES CONVERGED UPTO THIS ITERATION = 0
 
     ITERATION 33
      1       1.127305e+06     
      2       1.127912e+06     
      3       1.130014e+06     
      4       1.131310e+06     
      5       1.136617e+06     
      6       1.144168e+06     
 
     NUMBER OF EIGENVALUES CONVERGED UPTO THIS ITERATION = 0
 
     ITERATION 34
      1       1.127137e+06     
      2       1.127717e+06     
      3       1.129708e+06     
      4       1.130937e+06     
      5       1.135982e+06     
      6       1.143283e+06     
 
     NUMBER OF EIGENVALUES CONVERGED UPTO THIS ITERATION = 0
 
     ITERATION 35
      1       1.126983e+06     
      2       1.127540e+06     
      3       1.129423e+06     
      4       1.130595e+06     
      5       1.135378e+06     
      6       1.142418e+06     
 
     NUMBER OF EIGENVALUES CONVERGED UPTO THIS ITERATION = 0
 
     ITERATION 36
      1       1.126840e+06     
      2       1.127376e+06     
      3       1.129159e+06     
      4       1.130281e+06     
      5       1.134804e+06     
      6       1.141575e+06     
 
     NUMBER OF EIGENVALUES CONVERGED UPTO THIS ITERATION = 0
 
     ITERATION 37
      1       1.126707e+06     
      2       1.127226e+06     
      3       1.128912e+06     
      4       1.129991e+06     
      5       1.134258e+06     
      6       1.140754e+06     
 
     NUMBER OF EIGENVALUES CONVERGED UPTO THIS ITERATION = 0
 
     ITERATION 38
      1       1.126584e+06     
      2       1.127087e+06     
      3       1.128682e+06     
      4       1.129723e+06     
      5       1.133740e+06     
      6       1.139956e+06     
 
     NUMBER OF EIGENVALUES CONVERGED UPTO THIS ITERATION = 0
 
     ITERATION 39
      1       1.126470e+06     
      2       1.126959e+06     
      3       1.128467e+06     
      4       1.129476e+06     
      5       1.133249e+06     
      6       1.139182e+06     
 
     NUMBER OF EIGENVALUES CONVERGED UPTO THIS ITERATION = 0
 
     ITERATION 40
      1       1.126362e+06     
      2       1.126839e+06     
      3       1.128266e+06     
      4       1.129246e+06     
      5       1.132783e+06     
      6       1.138433e+06     
 
     NUMBER OF EIGENVALUES CONVERGED UPTO THIS ITERATION = 0
 
     ITERATION 41
      1       1.126262e+06     
      2       1.126728e+06     
      3       1.128078e+06     
      4       1.129032e+06     
      5       1.132341e+06     
      6       1.137709e+06     
 
     NUMBER OF EIGENVALUES CONVERGED UPTO THIS ITERATION = 0
 
     ITERATION 42
      1       1.126167e+06     
      2       1.126624e+06     
      3       1.127902e+06     
      4       1.128833e+06     
      5       1.131924e+06     
      6       1.137011e+06     
 
     NUMBER OF EIGENVALUES CONVERGED UPTO THIS ITERATION = 0
 
     ITERATION 43
      1       1.126078e+06     
      2       1.126527e+06     
      3       1.127737e+06     
      4       1.128647e+06     
      5       1.131529e+06     
      6       1.136339e+06     
 
     NUMBER OF EIGENVALUES CONVERGED UPTO THIS ITERATION = 0
 
     ITERATION 44
      1       1.125993e+06     
      2       1.126435e+06     
      3       1.127582e+06     
      4       1.128473e+06     
      5       1.131156e+06     
      6       1.135694e+06     
 
     NUMBER OF EIGENVALUES CONVERGED UPTO THIS ITERATION = 0
 
     ITERATION 45
      1       1.125913e+06     
      2       1.126349e+06     
      3       1.127437e+06     
      4       1.128310e+06     
      5       1.130804e+06     
      6       1.135076e+06     
 
     NUMBER OF EIGENVALUES CONVERGED UPTO THIS ITERATION = 0
 
     ITERATION 46
      1       1.125837e+06     
      2       1.126267e+06     
      3       1.127300e+06     
      4       1.128157e+06     
      5       1.130472e+06     
      6       1.134485e+06     
 
     NUMBER OF EIGENVALUES CONVERGED UPTO THIS ITERATION = 0
 
     ITERATION 47
      1       1.125765e+06     
      2       1.126190e+06     
      3       1.127173e+06     
      4       1.128013e+06     
      5       1.130160e+06     
      6       1.133921e+06     
 
     NUMBER OF EIGENVALUES CONVERGED UPTO THIS ITERATION = 0
 
     ITERATION 48
      1       1.125696e+06     
      2       1.126116e+06     
      3       1.127053e+06     
      4       1.127877e+06     
      5       1.129866e+06     
      6       1.133383e+06     
 
     NUMBER OF EIGENVALUES CONVERGED UPTO THIS ITERATION = 0
 
     ITERATION 49
      1       1.125629e+06     
      2       1.126045e+06     
      3       1.126940e+06     
      4       1.127748e+06     
      5       1.129590e+06     
      6       1.132872e+06     
 
     NUMBER OF EIGENVALUES CONVERGED UPTO THIS ITERATION = 0
 
     ITERATION 50
      1       1.125566e+06     
      2       1.125978e+06     
      3       1.126834e+06     
      4       1.127626e+06     
      5       1.129331e+06     
      6       1.132387e+06     
 
     NUMBER OF EIGENVALUES CONVERGED UPTO THIS ITERATION = 0
 
     ITERATION 51
      1       1.125505e+06     
      2       1.125912e+06     
      3       1.126735e+06     
      4       1.127511e+06     
      5       1.129089e+06     
      6       1.131927e+06     
 
     NUMBER OF EIGENVALUES CONVERGED UPTO THIS ITERATION = 0
 
     ITERATION 52
      1       1.125446e+06     
      2       1.125849e+06     
      3       1.126642e+06     
      4       1.127400e+06     
      5       1.128862e+06     
      6       1.131492e+06     
 
     NUMBER OF EIGENVALUES CONVERGED UPTO THIS ITERATION = 0
 
     ITERATION 53
      1       1.125389e+06     
      2       1.125788e+06     
      3       1.126555e+06     
      4       1.127294e+06     
      5       1.128650e+06     
      6       1.131082e+06     
 
     NUMBER OF EIGENVALUES CONVERGED UPTO THIS ITERATION = 0
 
     ITERATION 54
      1       1.125335e+06     
      2       1.125729e+06     
      3       1.126473e+06     
      4       1.127192e+06     
      5       1.128453e+06     
      6       1.130695e+06     
 
     NUMBER OF EIGENVALUES CONVERGED UPTO THIS ITERATION = 0
 
     ITERATION 55
      1       1.125282e+06     
      2       1.125670e+06     
      3       1.126396e+06     
      4       1.127094e+06     
      5       1.128270e+06     
      6       1.130330e+06     
 
     NUMBER OF EIGENVALUES CONVERGED UPTO THIS ITERATION = 0
 
     ITERATION 56
      1       1.125230e+06     
      2       1.125613e+06     
      3       1.126323e+06     
      4       1.126999e+06     
      5       1.128099e+06     
      6       1.129988e+06     
 
     NUMBER OF EIGENVALUES CONVERGED UPTO THIS ITERATION = 0
 
     ITERATION 57
      1       1.125180e+06     
      2       1.125557e+06     
      3       1.126255e+06     
      4       1.126907e+06     
      5       1.127942e+06     
      6       1.129667e+06     
 
     NUMBER OF EIGENVALUES CONVERGED UPTO THIS ITERATION = 0
 
     ITERATION 58
      1       1.125132e+06     
      2       1.125502e+06     
      3       1.126192e+06     
      4       1.126818e+06     
      5       1.127796e+06     
      6       1.129367e+06     
 
     NUMBER OF EIGENVALUES CONVERGED UPTO THIS ITERATION = 0
 
     ITERATION 59
      1       1.125084e+06     
      2       1.125447e+06     
      3       1.126131e+06     
      4       1.126731e+06     
      5       1.127661e+06     
      6       1.129086e+06     
 
     NUMBER OF EIGENVALUES CONVERGED UPTO THIS ITERATION = 0
 
     ITERATION 60
      1       1.125038e+06     
      2       1.125392e+06     
      3       1.126075e+06     
      4       1.126646e+06     
      5       1.127536e+06     
      6       1.128824e+06     
 
     NUMBER OF EIGENVALUES CONVERGED UPTO THIS ITERATION = 0
 
     ITERATION 61
      1       1.124993e+06     
      2       1.125338e+06     
      3       1.126021e+06     
      4       1.126563e+06     
      5       1.127421e+06     
      6       1.128581e+06     
 
     NUMBER OF EIGENVALUES CONVERGED UPTO THIS ITERATION = 0
 
     ITERATION 62
      1       1.124949e+06     
      2       1.125284e+06     
      3       1.125970e+06     
      4       1.126483e+06     
      5       1.127315e+06     
      6       1.128356e+06     
 
     NUMBER OF EIGENVALUES CONVERGED UPTO THIS ITERATION = 0
 
     ITERATION 63
      1       1.124906e+06     
      2       1.125230e+06     
      3       1.125922e+06     
      4       1.126405e+06     
      5       1.127216e+06     
      6       1.128148e+06     
 
     NUMBER OF EIGENVALUES CONVERGED UPTO THIS ITERATION = 0
 
     ITERATION 64
      1       1.124864e+06     
      2       1.125176e+06     
      3       1.125876e+06     
      4       1.126329e+06     
      5       1.127124e+06     
      6       1.127956e+06     
 
     NUMBER OF EIGENVALUES CONVERGED UPTO THIS ITERATION = 0
 
     ITERATION 65
      1       1.124823e+06     
      2       1.125122e+06     
      3       1.125831e+06     
      4       1.126257e+06     
      5       1.127037e+06     
      6       1.127781e+06     
 
     NUMBER OF EIGENVALUES CONVERGED UPTO THIS ITERATION = 0
 
     ITERATION 66
      1       1.124782e+06     
      2       1.125068e+06     
      3       1.125788e+06     
      4       1.126188e+06     
      5       1.126954e+06     
      6       1.127622e+06     
 
     NUMBER OF EIGENVALUES CONVERGED UPTO THIS ITERATION = 0
 
     ITERATION 67
      1       1.124742e+06     
      2       1.125014e+06     
      3       1.125745e+06     
      4       1.126122e+06     
      5       1.126875e+06     
      6       1.127477e+06     
 
     NUMBER OF EIGENVALUES CONVERGED UPTO THIS ITERATION = 0
 
     ITERATION 68
      1       1.124703e+06     
      2       1.124960e+06     
      3       1.125703e+06     
      4       1.126060e+06     
      5       1.126798e+06     
      6       1.127348e+06     
 
     NUMBER OF EIGENVALUES CONVERGED UPTO THIS ITERATION = 0
 
     ITERATION 69
      1       1.124664e+06     
      2       1.124906e+06     
      3       1.125662e+06     
      4       1.126003e+06     
      5       1.126724e+06     
      6       1.127233e+06     
 
     NUMBER OF EIGENVALUES CONVERGED UPTO THIS ITERATION = 0
 
     ITERATION 70
      1       1.124626e+06     
      2       1.124853e+06     
      3       1.125620e+06     
      4       1.125949e+06     
      5       1.126650e+06     
      6       1.127132e+06     
 
     NUMBER OF EIGENVALUES CONVERGED UPTO THIS ITERATION = 0
 
     ITERATION 71
      1       1.124588e+06     
      2       1.124799e+06     
      3       1.125578e+06     
      4       1.125900e+06     
      5       1.126577e+06     
      6       1.127043e+06     
 
     NUMBER OF EIGENVALUES CONVERGED UPTO THIS ITERATION = 0
 
     ITERATION 72
      1       1.124550e+06     
      2       1.124745e+06     
      3       1.125536e+06     
      4       1.125855e+06     
      5       1.126506e+06     
      6       1.126965e+06     
 
     NUMBER OF EIGENVALUES CONVERGED UPTO THIS ITERATION = 0
 
     ITERATION 73
      1       1.124513e+06     
      2       1.124691e+06     
      3       1.125493e+06     
      4       1.125814e+06     
      5       1.126437e+06     
      6       1.126897e+06     
 
     NUMBER OF EIGENVALUES CONVERGED UPTO THIS ITERATION = 0
 
     ITERATION 74
      1       1.124477e+06     
      2       1.124638e+06     
      3       1.125451e+06     
      4       1.125777e+06     
      5       1.126371e+06     
      6       1.126837e+06     
 
     NUMBER OF EIGENVALUES CONVERGED UPTO THIS ITERATION = 0
 
     ITERATION 75
      1       1.124440e+06     
      2       1.124585e+06     
      3       1.125408e+06     
      4       1.125743e+06     
      5       1.126307e+06     
      6       1.126784e+06     
 
     NUMBER OF EIGENVALUES CONVERGED UPTO THIS ITERATION = 0
 
     ITERATION 76
      1       1.124404e+06     
      2       1.124533e+06     
      3       1.125366e+06     
      4       1.125713e+06     
      5       1.126247e+06     
      6       1.126737e+06     
 
     NUMBER OF EIGENVALUES CONVERGED UPTO THIS ITERATION = 0
 
     ITERATION 77
      1       1.124368e+06     
      2       1.124481e+06     
      3       1.125324e+06     
      4       1.125684e+06     
      5       1.126190e+06     
      6       1.126694e+06     
 
     NUMBER OF EIGENVALUES CONVERGED UPTO THIS ITERATION = 0
 
     ITERATION 78
      1       1.124332e+06     
      2       1.124430e+06     
      3       1.125283e+06     
      4       1.125658e+06     
      5       1.126137e+06     
      6       1.126656e+06     
 
     NUMBER OF EIGENVALUES CONVERGED UPTO THIS ITERATION = 0
 
     ITERATION 79
      1       1.124297e+06     
      2       1.124380e+06     
      3       1.125243e+06     
      4       1.125634e+06     
      5       1.126087e+06     
      6       1.126620e+06     
 
     NUMBER OF EIGENVALUES CONVERGED UPTO THIS ITERATION = 0
 
     ITERATION 80
      1       1.124261e+06     
      2       1.124331e+06     
      3       1.125204e+06     
      4       1.125612e+06     
      5       1.126041e+06     
      6       1.126588e+06     
 
     NUMBER OF EIGENVALUES CONVERGED UPTO THIS ITERATION = 0
 
     ITERATION 81
      1       1.124224e+06     
      2       1.124283e+06     
      3       1.125165e+06     
      4       1.125591e+06     
      5       1.125998e+06     
      6       1.126558e+06     
 
     NUMBER OF EIGENVALUES CONVERGED UPTO THIS ITERATION = 0
 
     ITERATION 82
      1       1.124187e+06     
      2       1.124237e+06     
      3       1.125128e+06     
      4       1.125572e+06     
      5       1.125958e+06     
      6       1.126530e+06     
 
     NUMBER OF EIGENVALUES CONVERGED UPTO THIS ITERATION = 0
 
     ITERATION 83
      1       1.124149e+06     
      2       1.124193e+06     
      3       1.125091e+06     
      4       1.125553e+06     
      5       1.125921e+06     
      6       1.126504e+06     
 
     NUMBER OF EIGENVALUES CONVERGED UPTO THIS ITERATION = 0
 
     ITERATION 84
      1       1.124110e+06     
      2       1.124151e+06     
      3       1.125056e+06     
      4       1.125536e+06     
      5       1.125887e+06     
      6       1.126480e+06     
 
     NUMBER OF EIGENVALUES CONVERGED UPTO THIS ITERATION = 0
 
     ITERATION 85
      1       1.124069e+06     
      2       1.124111e+06     
      3       1.125021e+06     
      4       1.125519e+06     
      5       1.125855e+06     
      6       1.126458e+06     
 
     NUMBER OF EIGENVALUES CONVERGED UPTO THIS ITERATION = 0
 
     ITERATION 86
      1       1.124027e+06     
      2       1.124074e+06     
      3       1.124988e+06     
      4       1.125503e+06     
      5       1.125826e+06     
      6       1.126436e+06     
 
     NUMBER OF EIGENVALUES CONVERGED UPTO THIS ITERATION = 0
 
     ITERATION 87
      1       1.123984e+06     
      2       1.124037e+06     
      3       1.124955e+06     
      4       1.125488e+06     
      5       1.125799e+06     
      6       1.126416e+06     
 
     NUMBER OF EIGENVALUES CONVERGED UPTO THIS ITERATION = 0
 
     ITERATION 88
      1       1.123942e+06     
      2       1.124002e+06     
      3       1.124924e+06     
      4       1.125474e+06     
      5       1.125774e+06     
      6       1.126397e+06     
 
     NUMBER OF EIGENVALUES CONVERGED UPTO THIS ITERATION = 0
 
     ITERATION 89
      1       1.123899e+06     
      2       1.123966e+06     
      3       1.124893e+06     
      4       1.125460e+06     
      5       1.125751e+06     
      6       1.126379e+06     
 
     NUMBER OF EIGENVALUES CONVERGED UPTO THIS ITERATION = 0
 
     ITERATION 90
      1       1.123857e+06     
      2       1.123932e+06     
      3       1.124863e+06     
      4       1.125447e+06     
      5       1.125729e+06     
      6       1.126362e+06     
 
     NUMBER OF EIGENVALUES CONVERGED UPTO THIS ITERATION = 0
 
     ITERATION 91
      1       1.123815e+06     
      2       1.123897e+06     
      3       1.124833e+06     
      4       1.125434e+06     
      5       1.125709e+06     
      6       1.126346e+06     
 
     NUMBER OF EIGENVALUES CONVERGED UPTO THIS ITERATION = 0
 
     ITERATION 92
      1       1.123774e+06     
      2       1.123863e+06     
      3       1.124805e+06     
      4       1.125422e+06     
      5       1.125690e+06     
      6       1.126331e+06     
 
     NUMBER OF EIGENVALUES CONVERGED UPTO THIS ITERATION = 0
 
     ITERATION 93
      1       1.123733e+06     
      2       1.123828e+06     
      3       1.124777e+06     
      4       1.125410e+06     
      5       1.125673e+06     
      6       1.126316e+06     
 
     NUMBER OF EIGENVALUES CONVERGED UPTO THIS ITERATION = 0
 
     ITERATION 94
      1       1.123693e+06     
      2       1.123794e+06     
      3       1.124749e+06     
      4       1.125399e+06     
      5       1.125657e+06     
      6       1.126302e+06     
 
     NUMBER OF EIGENVALUES CONVERGED UPTO THIS ITERATION = 0
 
     ITERATION 95
      1       1.123653e+06     
      2       1.123760e+06     
      3       1.124722e+06     
      4       1.125388e+06     
      5       1.125642e+06     
      6       1.126288e+06     
 
     NUMBER OF EIGENVALUES CONVERGED UPTO THIS ITERATION = 0
 
     ITERATION 96
      1       1.123613e+06     
      2       1.123726e+06     
      3       1.124696e+06     
      4       1.125377e+06     
      5       1.125628e+06     
      6       1.126276e+06     
 
     NUMBER OF EIGENVALUES CONVERGED UPTO THIS ITERATION = 0
 
     ITERATION 97
      1       1.123574e+06     
      2       1.123691e+06     
      3       1.124670e+06     
      4       1.125367e+06     
      5       1.125615e+06     
      6       1.126263e+06     
 
     NUMBER OF EIGENVALUES CONVERGED UPTO THIS ITERATION = 0
 
     ITERATION 98
      1       1.123535e+06     
      2       1.123657e+06     
      3       1.124645e+06     
      4       1.125357e+06     
      5       1.125602e+06     
      6       1.126251e+06     
 
     NUMBER OF EIGENVALUES CONVERGED UPTO THIS ITERATION = 0
 
     ITERATION 99
      1       1.123496e+06     
      2       1.123622e+06     
      3       1.124620e+06     
      4       1.125347e+06     
      5       1.125591e+06     
      6       1.126240e+06     
 
     NUMBER OF EIGENVALUES CONVERGED UPTO THIS ITERATION = 0
 
     ITERATION 100
      1       1.123458e+06     
      2       1.123588e+06     
      3       1.124595e+06     
      4       1.125338e+06     
      5       1.125580e+06     
      6       1.126229e+06     
 
     NUMBER OF EIGENVALUES CONVERGED UPTO THIS ITERATION = 0
 
     ITERATION 101
      1       1.123420e+06     
      2       1.123553e+06     
      3       1.124571e+06     
      4       1.125329e+06     
      5       1.125570e+06     
      6       1.126219e+06     
 
     NUMBER OF EIGENVALUES CONVERGED UPTO THIS ITERATION = 0
 
     ITERATION 102
      1       1.123382e+06     
      2       1.123518e+06     
      3       1.124546e+06     
      4       1.125320e+06     
      5       1.125560e+06     
      6       1.126208e+06     
 
     NUMBER OF EIGENVALUES CONVERGED UPTO THIS ITERATION = 0
 
     ITERATION 103
      1       1.123344e+06     
      2       1.123483e+06     
      3       1.124523e+06     
      4       1.125312e+06     
      5       1.125551e+06     
      6       1.126199e+06     
 
     NUMBER OF EIGENVALUES CONVERGED UPTO THIS ITERATION = 0
 
     ITERATION 104
      1       1.123306e+06     
      2       1.123448e+06     
      3       1.124499e+06     
      4       1.125304e+06     
      5       1.125543e+06     
      6       1.126189e+06     
 
     NUMBER OF EIGENVALUES CONVERGED UPTO THIS ITERATION = 0
 
     ITERATION 105
      1       1.123269e+06     
      2       1.123413e+06     
      3       1.124476e+06     
      4       1.125296e+06     
      5       1.125535e+06     
      6       1.126180e+06     
 
     NUMBER OF EIGENVALUES CONVERGED UPTO THIS ITERATION = 0
 
     ITERATION 106
      1       1.123231e+06     
      2       1.123378e+06     
      3       1.124452e+06     
      4       1.125288e+06     
      5       1.125527e+06     
      6       1.126171e+06     
 
     NUMBER OF EIGENVALUES CONVERGED UPTO THIS ITERATION = 0
 
     ITERATION 107
      1       1.123194e+06     
      2       1.123343e+06     
      3       1.124429e+06     
      4       1.125280e+06     
      5       1.125520e+06     
      6       1.126163e+06     
 
     NUMBER OF EIGENVALUES CONVERGED UPTO THIS ITERATION = 0
 
     ITERATION 108
      1       1.123157e+06     
      2       1.123307e+06     
      3       1.124406e+06     
      4       1.125273e+06     
      5       1.125513e+06     
      6       1.126154e+06     
 
     NUMBER OF EIGENVALUES CONVERGED UPTO THIS ITERATION = 0
 
     ITERATION 109
      1       1.123119e+06     
      2       1.123271e+06     
      3       1.124384e+06     
      4       1.125266e+06     
      5       1.125506e+06     
      6       1.126146e+06     
 
     NUMBER OF EIGENVALUES CONVERGED UPTO THIS ITERATION = 0
 
     ITERATION 110
      1       1.123082e+06     
      2       1.123236e+06     
      3       1.124361e+06     
      4       1.125259e+06     
      5       1.125500e+06     
      6       1.126138e+06     
 
     NUMBER OF EIGENVALUES CONVERGED UPTO THIS ITERATION = 0
 
     ITERATION 111
      1       1.123045e+06     
      2       1.123200e+06     
      3       1.124338e+06     
      4       1.125252e+06     
      5       1.125494e+06     
      6       1.126130e+06     
 
     NUMBER OF EIGENVALUES CONVERGED UPTO THIS ITERATION = 0
 
     ITERATION 112
      1       1.123007e+06     
      2       1.123163e+06     
      3       1.124315e+06     
      4       1.125245e+06     
      5       1.125488e+06     
      6       1.126123e+06     
 
     NUMBER OF EIGENVALUES CONVERGED UPTO THIS ITERATION = 0
 
     ITERATION 113
      1       1.122970e+06     
      2       1.123127e+06     
      3       1.124293e+06     
      4       1.125239e+06     
      5       1.125482e+06     
      6       1.126116e+06     
 
     NUMBER OF EIGENVALUES CONVERGED UPTO THIS ITERATION = 0
 
     ITERATION 114
      1       1.122933e+06     
      2       1.123091e+06     
      3       1.124270e+06     
      4       1.125232e+06     
      5       1.125477e+06     
      6       1.126109e+06     
 
     NUMBER OF EIGENVALUES CONVERGED UPTO THIS ITERATION = 0
 
     ITERATION 115
      1       1.122895e+06     
      2       1.123054e+06     
      3       1.124248e+06     
      4       1.125226e+06     
      5       1.125472e+06     
      6       1.126102e+06     
 
     NUMBER OF EIGENVALUES CONVERGED UPTO THIS ITERATION = 0
 
     ITERATION 116
      1       1.122858e+06     
      2       1.123017e+06     
      3       1.124225e+06     
      4       1.125220e+06     
      5       1.125467e+06     
      6       1.126095e+06     
 
     NUMBER OF EIGENVALUES CONVERGED UPTO THIS ITERATION = 0
 
     ITERATION 117
      1       1.122820e+06     
      2       1.122980e+06     
      3       1.124202e+06     
      4       1.125214e+06     
      5       1.125462e+06     
      6       1.126088e+06     
 
     NUMBER OF EIGENVALUES CONVERGED UPTO THIS ITERATION = 0
 
     ITERATION 118
      1       1.122782e+06     
      2       1.122943e+06     
      3       1.124180e+06     
      4       1.125208e+06     
      5       1.125458e+06     
      6       1.126082e+06     
 
     NUMBER OF EIGENVALUES CONVERGED UPTO THIS ITERATION = 0
 
     ITERATION 119
      1       1.122745e+06     
      2       1.122905e+06     
      3       1.124157e+06     
      4       1.125202e+06     
      5       1.125453e+06     
      6       1.126075e+06     
 
     NUMBER OF EIGENVALUES CONVERGED UPTO THIS ITERATION = 0
 
     ITERATION 120
      1       1.122707e+06     
      2       1.122868e+06     
      3       1.124134e+06     
      4       1.125196e+06     
      5       1.125449e+06     
      6       1.126069e+06     
 
     NUMBER OF EIGENVALUES CONVERGED UPTO THIS ITERATION = 0
 
     ITERATION 121
      1       1.122669e+06     
      2       1.122830e+06     
      3       1.124111e+06     
      4       1.125190e+06     
      5       1.125445e+06     
      6       1.126063e+06     
 
     NUMBER OF EIGENVALUES CONVERGED UPTO THIS ITERATION = 0
 
     ITERATION 122
      1       1.122630e+06     
      2       1.122792e+06     
      3       1.124088e+06     
      4       1.125185e+06     
      5       1.125440e+06     
      6       1.126057e+06     
 
     NUMBER OF EIGENVALUES CONVERGED UPTO THIS ITERATION = 0
 
     ITERATION 123
      1       1.122592e+06     
      2       1.122754e+06     
      3       1.124065e+06     
      4       1.125179e+06     
      5       1.125436e+06     
      6       1.126051e+06     
 
     NUMBER OF EIGENVALUES CONVERGED UPTO THIS ITERATION = 0
 
     ITERATION 124
      1       1.122554e+06     
      2       1.122716e+06     
      3       1.124042e+06     
      4       1.125173e+06     
      5       1.125433e+06     
      6       1.126045e+06     
 
     NUMBER OF EIGENVALUES CONVERGED UPTO THIS ITERATION = 0
 
     ITERATION 125
      1       1.122515e+06     
      2       1.122677e+06     
      3       1.124019e+06     
      4       1.125168e+06     
      5       1.125429e+06     
      6       1.126039e+06     
 
     NUMBER OF EIGENVALUES CONVERGED UPTO THIS ITERATION = 0
 
     ITERATION 126
      1       1.122476e+06     
      2       1.122639e+06     
      3       1.123996e+06     
      4       1.125163e+06     
      5       1.125425e+06     
      6       1.126034e+06     
 
     NUMBER OF EIGENVALUES CONVERGED UPTO THIS ITERATION = 0
 
     ITERATION 127
      1       1.122437e+06     
      2       1.122600e+06     
      3       1.123972e+06     
      4       1.125157e+06     
      5       1.125421e+06     
      6       1.126028e+06     
 
     NUMBER OF EIGENVALUES CONVERGED UPTO THIS ITERATION = 0
 
     ITERATION 128
      1       1.122398e+06     
      2       1.122561e+06     
      3       1.123948e+06     
      4       1.125152e+06     
      5       1.125418e+06     
      6       1.126022e+06     
 
     NUMBER OF EIGENVALUES CONVERGED UPTO THIS ITERATION = 0
 
     ITERATION 129
      1       1.122359e+06     
      2       1.122522e+06     
      3       1.123925e+06     
      4       1.125147e+06     
      5       1.125414e+06     
      6       1.126017e+06     
 
     NUMBER OF EIGENVALUES CONVERGED UPTO THIS ITERATION = 0
 
     ITERATION 130
      1       1.122320e+06     
      2       1.122482e+06     
      3       1.123901e+06     
      4       1.125141e+06     
      5       1.125411e+06     
      6       1.126012e+06     
 
     NUMBER OF EIGENVALUES CONVERGED UPTO THIS ITERATION = 0
 
     ITERATION 131
      1       1.122280e+06     
      2       1.122443e+06     
      3       1.123877e+06     
      4       1.125136e+06     
      5       1.125407e+06     
      6       1.126006e+06     
 
     NUMBER OF EIGENVALUES CONVERGED UPTO THIS ITERATION = 0
 
     ITERATION 132
      1       1.122241e+06     
      2       1.122403e+06     
      3       1.123852e+06     
      4       1.125131e+06     
      5       1.125404e+06     
      6       1.126001e+06     
 
     NUMBER OF EIGENVALUES CONVERGED UPTO THIS ITERATION = 0
 
     ITERATION 133
      1       1.122201e+06     
      2       1.122363e+06     
      3       1.123828e+06     
      4       1.125126e+06     
      5       1.125401e+06     
      6       1.125996e+06     
 
     NUMBER OF EIGENVALUES CONVERGED UPTO THIS ITERATION = 0
 
     ITERATION 134
      1       1.122161e+06     
      2       1.122323e+06     
      3       1.123803e+06     
      4       1.125120e+06     
      5       1.125398e+06     
      6       1.125991e+06     
 
     NUMBER OF EIGENVALUES CONVERGED UPTO THIS ITERATION = 0
 
     ITERATION 135
      1       1.122120e+06     
      2       1.122283e+06     
      3       1.123778e+06     
      4       1.125115e+06     
      5       1.125394e+06     
      6       1.125985e+06     
 
     NUMBER OF EIGENVALUES CONVERGED UPTO THIS ITERATION = 0
 
     ITERATION 136
      1       1.122080e+06     
      2       1.122242e+06     
      3       1.123753e+06     
      4       1.125110e+06     
      5       1.125391e+06     
      6       1.125980e+06     
 
     NUMBER OF EIGENVALUES CONVERGED UPTO THIS ITERATION = 0
 
     ITERATION 137
      1       1.122040e+06     
      2       1.122202e+06     
      3       1.123728e+06     
      4       1.125105e+06     
      5       1.125388e+06     
      6       1.125975e+06     
 
     NUMBER OF EIGENVALUES CONVERGED UPTO THIS ITERATION = 0
 
     ITERATION 138
      1       1.121999e+06     
      2       1.122161e+06     
      3       1.123703e+06     
      4       1.125099e+06     
      5       1.125385e+06     
      6       1.125970e+06     
 
     NUMBER OF EIGENVALUES CONVERGED UPTO THIS ITERATION = 0
 
     ITERATION 139
      1       1.121958e+06     
      2       1.122120e+06     
      3       1.123677e+06     
      4       1.125094e+06     
      5       1.125382e+06     
      6       1.125965e+06     
 
     NUMBER OF EIGENVALUES CONVERGED UPTO THIS ITERATION = 0
 
     ITERATION 140
      1       1.121917e+06     
      2       1.122079e+06     
      3       1.123651e+06     
      4       1.125089e+06     
      5       1.125379e+06     
      6       1.125961e+06     
 
     NUMBER OF EIGENVALUES CONVERGED UPTO THIS ITERATION = 0
 
     ITERATION 141
      1       1.121876e+06     
      2       1.122038e+06     
      3       1.123625e+06     
      4       1.125084e+06     
      5       1.125376e+06     
      6       1.125956e+06     
 
     NUMBER OF EIGENVALUES CONVERGED UPTO THIS ITERATION = 0
 
     ITERATION 142
      1       1.121835e+06     
      2       1.121996e+06     
      3       1.123599e+06     
      4       1.125078e+06     
      5       1.125373e+06     
      6       1.125951e+06     
 
     NUMBER OF EIGENVALUES CONVERGED UPTO THIS ITERATION = 0
 
     ITERATION 143
      1       1.121793e+06     
      2       1.121955e+06     
      3       1.123573e+06     
      4       1.125073e+06     
      5       1.125370e+06     
      6       1.125946e+06     
 
     NUMBER OF EIGENVALUES CONVERGED UPTO THIS ITERATION = 0
 
     ITERATION 144
      1       1.121752e+06     
      2       1.121913e+06     
      3       1.123546e+06     
      4       1.125068e+06     
      5       1.125367e+06     
      6       1.125941e+06     
 
     NUMBER OF EIGENVALUES CONVERGED UPTO THIS ITERATION = 0
 
     ITERATION 145
      1       1.121710e+06     
      2       1.121871e+06     
      3       1.123519e+06     
      4       1.125063e+06     
      5       1.125364e+06     
      6       1.125937e+06     
 
     NUMBER OF EIGENVALUES CONVERGED UPTO THIS ITERATION = 0
 
     ITERATION 146
      1       1.121668e+06     
      2       1.121829e+06     
      3       1.123492e+06     
      4       1.125057e+06     
      5       1.125361e+06     
      6       1.125932e+06     
 
     NUMBER OF EIGENVALUES CONVERGED UPTO THIS ITERATION = 0
 
     ITERATION 147
      1       1.121626e+06     
      2       1.121787e+06     
      3       1.123464e+06     
      4       1.125052e+06     
      5       1.125358e+06     
      6       1.125927e+06     
 
     NUMBER OF EIGENVALUES CONVERGED UPTO THIS ITERATION = 0
 
     ITERATION 148
      1       1.121584e+06     
      2       1.121745e+06     
      3       1.123437e+06     
      4       1.125046e+06     
      5       1.125355e+06     
      6       1.125922e+06     
 
     NUMBER OF EIGENVALUES CONVERGED UPTO THIS ITERATION = 0
 
     ITERATION 149
      1       1.121542e+06     
      2       1.121703e+06     
      3       1.123409e+06     
      4       1.125041e+06     
      5       1.125352e+06     
      6       1.125918e+06     
 
     NUMBER OF EIGENVALUES CONVERGED UPTO THIS ITERATION = 0
 
     ITERATION 150
      1       1.121499e+06     
      2       1.121660e+06     
      3       1.123381e+06     
      4       1.125035e+06     
      5       1.125349e+06     
      6       1.125913e+06     
 
     NUMBER OF EIGENVALUES CONVERGED UPTO THIS ITERATION = 0
 
     ITERATION 151
      1       1.121457e+06     
      2       1.121618e+06     
      3       1.123353e+06     
      4       1.125030e+06     
      5       1.125346e+06     
      6       1.125908e+06     
 
     NUMBER OF EIGENVALUES CONVERGED UPTO THIS ITERATION = 0
 
     ITERATION 152
      1       1.121414e+06     
      2       1.121575e+06     
      3       1.123324e+06     
      4       1.125024e+06     
      5       1.125343e+06     
      6       1.125904e+06     
 
     NUMBER OF EIGENVALUES CONVERGED UPTO THIS ITERATION = 0
 
     ITERATION 153
      1       1.121372e+06     
      2       1.121532e+06     
      3       1.123295e+06     
      4       1.125018e+06     
      5       1.125340e+06     
      6       1.125899e+06     
 
     NUMBER OF EIGENVALUES CONVERGED UPTO THIS ITERATION = 0
 
     ITERATION 154
      1       1.121329e+06     
      2       1.121489e+06     
      3       1.123266e+06     
      4       1.125013e+06     
      5       1.125338e+06     
      6       1.125895e+06     
 
     NUMBER OF EIGENVALUES CONVERGED UPTO THIS ITERATION = 0
 
     ITERATION 155
      1       1.121286e+06     
      2       1.121446e+06     
      3       1.123237e+06     
      4       1.125007e+06     
      5       1.125335e+06     
      6       1.125890e+06     
 
     NUMBER OF EIGENVALUES CONVERGED UPTO THIS ITERATION = 0
 
     ITERATION 156
      1       1.121243e+06     
      2       1.121403e+06     
      3       1.123208e+06     
      4       1.125001e+06     
      5       1.125332e+06     
      6       1.125886e+06     
 
     NUMBER OF EIGENVALUES CONVERGED UPTO THIS ITERATION = 0
 
     ITERATION 157
      1       1.121200e+06     
      2       1.121360e+06     
      3       1.123178e+06     
      4       1.124995e+06     
      5       1.125329e+06     
      6       1.125881e+06     
 
     NUMBER OF EIGENVALUES CONVERGED UPTO THIS ITERATION = 0
 
     ITERATION 158
      1       1.121156e+06     
      2       1.121317e+06     
      3       1.123148e+06     
      4       1.124989e+06     
      5       1.125326e+06     
      6       1.125877e+06     
 
     NUMBER OF EIGENVALUES CONVERGED UPTO THIS ITERATION = 0
 
     ITERATION 159
      1       1.121113e+06     
      2       1.121273e+06     
      3       1.123118e+06     
      4       1.124983e+06     
      5       1.125323e+06     
      6       1.125872e+06     
 
     NUMBER OF EIGENVALUES CONVERGED UPTO THIS ITERATION = 0
 
     ITERATION 160
      1       1.121070e+06     
      2       1.121230e+06     
      3       1.123087e+06     
      4       1.124977e+06     
      5       1.125320e+06     
      6       1.125868e+06     
 
     NUMBER OF EIGENVALUES CONVERGED UPTO THIS ITERATION = 0
 
     ITERATION 161
      1       1.121026e+06     
      2       1.121186e+06     
      3       1.123056e+06     
      4       1.124971e+06     
      5       1.125317e+06     
      6       1.125863e+06     
 
     NUMBER OF EIGENVALUES CONVERGED UPTO THIS ITERATION = 0
 
     ITERATION 162
      1       1.120983e+06     
      2       1.121143e+06     
      3       1.123025e+06     
      4       1.124965e+06     
      5       1.125314e+06     
      6       1.125859e+06     
 
     NUMBER OF EIGENVALUES CONVERGED UPTO THIS ITERATION = 0
 
     ITERATION 163
      1       1.120939e+06     
      2       1.121099e+06     
      3       1.122994e+06     
      4       1.124958e+06     
      5       1.125311e+06     
      6       1.125854e+06     
 
     NUMBER OF EIGENVALUES CONVERGED UPTO THIS ITERATION = 0
 
     ITERATION 164
      1       1.120895e+06     
      2       1.121055e+06     
      3       1.122963e+06     
      4       1.124952e+06     
      5       1.125309e+06     
      6       1.125850e+06     
 
     NUMBER OF EIGENVALUES CONVERGED UPTO THIS ITERATION = 0
 
     ITERATION 165
      1       1.120852e+06     
      2       1.121012e+06     
      3       1.122931e+06     
      4       1.124945e+06     
      5       1.125306e+06     
      6       1.125845e+06     
 
     NUMBER OF EIGENVALUES CONVERGED UPTO THIS ITERATION = 0
 
     ITERATION 166
      1       1.120808e+06     
      2       1.120968e+06     
      3       1.122899e+06     
      4       1.124939e+06     
      5       1.125303e+06     
      6       1.125841e+06     
 
     NUMBER OF EIGENVALUES CONVERGED UPTO THIS ITERATION = 0
 
     ITERATION 167
      1       1.120764e+06     
      2       1.120924e+06     
      3       1.122867e+06     
      4       1.124932e+06     
      5       1.125300e+06     
      6       1.125836e+06     
 
     NUMBER OF EIGENVALUES CONVERGED UPTO THIS ITERATION = 0
 
     ITERATION 168
      1       1.120720e+06     
      2       1.120880e+06     
      3       1.122834e+06     
      4       1.124925e+06     
      5       1.125297e+06     
      6       1.125832e+06     
 
     NUMBER OF EIGENVALUES CONVERGED UPTO THIS ITERATION = 0
 
     ITERATION 169
      1       1.120677e+06     
      2       1.120837e+06     
      3       1.122801e+06     
      4       1.124918e+06     
      5       1.125294e+06     
      6       1.125827e+06     
 
     NUMBER OF EIGENVALUES CONVERGED UPTO THIS ITERATION = 0
 
     ITERATION 170
      1       1.120633e+06     
      2       1.120793e+06     
      3       1.122768e+06     
      4       1.124912e+06     
      5       1.125291e+06     
      6       1.125823e+06     
 
     NUMBER OF EIGENVALUES CONVERGED UPTO THIS ITERATION = 0
 
     ITERATION 171
      1       1.120589e+06     
      2       1.120749e+06     
      3       1.122735e+06     
      4       1.124904e+06     
      5       1.125288e+06     
      6       1.125819e+06     
 
     NUMBER OF EIGENVALUES CONVERGED UPTO THIS ITERATION = 0
 
     ITERATION 172
      1       1.120545e+06     
      2       1.120705e+06     
      3       1.122702e+06     
      4       1.124897e+06     
      5       1.125285e+06     
      6       1.125814e+06     
 
     NUMBER OF EIGENVALUES CONVERGED UPTO THIS ITERATION = 0
 
     ITERATION 173
      1       1.120501e+06     
      2       1.120661e+06     
      3       1.122668e+06     
      4       1.124890e+06     
      5       1.125282e+06     
      6       1.125810e+06     
 
     NUMBER OF EIGENVALUES CONVERGED UPTO THIS ITERATION = 0
 
     ITERATION 174
      1       1.120457e+06     
      2       1.120617e+06     
      3       1.122634e+06     
      4       1.124883e+06     
      5       1.125279e+06     
      6       1.125805e+06     
 
     NUMBER OF EIGENVALUES CONVERGED UPTO THIS ITERATION = 0
 
     ITERATION 175
      1       1.120413e+06     
      2       1.120574e+06     
      3       1.122599e+06     
      4       1.124875e+06     
      5       1.125276e+06     
      6       1.125801e+06     
 
     NUMBER OF EIGENVALUES CONVERGED UPTO THIS ITERATION = 0
 
     ITERATION 176
      1       1.120370e+06     
      2       1.120530e+06     
      3       1.122565e+06     
      4       1.124868e+06     
      5       1.125273e+06     
      6       1.125797e+06     
 
     NUMBER OF EIGENVALUES CONVERGED UPTO THIS ITERATION = 0
 
     ITERATION 177
      1       1.120326e+06     
      2       1.120486e+06     
      3       1.122530e+06     
      4       1.124860e+06     
      5       1.125270e+06     
      6       1.125792e+06     
 
     NUMBER OF EIGENVALUES CONVERGED UPTO THIS ITERATION = 0
 
     ITERATION 178
      1       1.120282e+06     
      2       1.120442e+06     
      3       1.122495e+06     
      4       1.124852e+06     
      5       1.125267e+06     
      6       1.125788e+06     
 
     NUMBER OF EIGENVALUES CONVERGED UPTO THIS ITERATION = 0
 
     ITERATION 179
      1       1.120238e+06     
      2       1.120399e+06     
      3       1.122460e+06     
      4       1.124844e+06     
      5       1.125264e+06     
      6       1.125783e+06     
 
     NUMBER OF EIGENVALUES CONVERGED UPTO THIS ITERATION = 0
 
     ITERATION 180
      1       1.120194e+06     
      2       1.120355e+06     
      3       1.122425e+06     
      4       1.124836e+06     
      5       1.125261e+06     
      6       1.125779e+06     
 
     NUMBER OF EIGENVALUES CONVERGED UPTO THIS ITERATION = 0
 
     ITERATION 181
      1       1.120151e+06     
      2       1.120311e+06     
      3       1.122389e+06     
      4       1.124828e+06     
      5       1.125258e+06     
      6       1.125775e+06     
 
     NUMBER OF EIGENVALUES CONVERGED UPTO THIS ITERATION = 0
 
     ITERATION 182
      1       1.120107e+06     
      2       1.120268e+06     
      3       1.122353e+06     
      4       1.124820e+06     
      5       1.125255e+06     
      6       1.125770e+06     
 
     NUMBER OF EIGENVALUES CONVERGED UPTO THIS ITERATION = 0
 
     ITERATION 183
      1       1.120064e+06     
      2       1.120224e+06     
      3       1.122317e+06     
      4       1.124811e+06     
      5       1.125252e+06     
      6       1.125766e+06     
 
     NUMBER OF EIGENVALUES CONVERGED UPTO THIS ITERATION = 0
 
     ITERATION 184
      1       1.120020e+06     
      2       1.120181e+06     
      3       1.122280e+06     
      4       1.124803e+06     
      5       1.125249e+06     
      6       1.125762e+06     
 
     NUMBER OF EIGENVALUES CONVERGED UPTO THIS ITERATION = 0
 
     ITERATION 185
      1       1.119977e+06     
      2       1.120137e+06     
      3       1.122244e+06     
      4       1.124794e+06     
      5       1.125246e+06     
      6       1.125757e+06     
 
     NUMBER OF EIGENVALUES CONVERGED UPTO THIS ITERATION = 0
 
     ITERATION 186
      1       1.119933e+06     
      2       1.120094e+06     
      3       1.122207e+06     
      4       1.124785e+06     
      5       1.125243e+06     
      6       1.125753e+06     
 
     NUMBER OF EIGENVALUES CONVERGED UPTO THIS ITERATION = 0
 
     ITERATION 187
      1       1.119890e+06     
      2       1.120051e+06     
      3       1.122170e+06     
      4       1.124776e+06     
      5       1.125239e+06     
      6       1.125749e+06     
 
     NUMBER OF EIGENVALUES CONVERGED UPTO THIS ITERATION = 0
 
     ITERATION 188
      1       1.119847e+06     
      2       1.120008e+06     
      3       1.122132e+06     
      4       1.124767e+06     
      5       1.125236e+06     
      6       1.125745e+06     
 
     NUMBER OF EIGENVALUES CONVERGED UPTO THIS ITERATION = 0
 
     ITERATION 189
      1       1.119804e+06     
      2       1.119965e+06     
      3       1.122095e+06     
      4       1.124758e+06     
      5       1.125233e+06     
      6       1.125740e+06     
 
     NUMBER OF EIGENVALUES CONVERGED UPTO THIS ITERATION = 0
 
     ITERATION 190
      1       1.119761e+06     
      2       1.119922e+06     
      3       1.122057e+06     
      4       1.124748e+06     
      5       1.125230e+06     
      6       1.125736e+06     
 
     NUMBER OF EIGENVALUES CONVERGED UPTO THIS ITERATION = 0
 
     ITERATION 191
      1       1.119718e+06     
      2       1.119879e+06     
      3       1.122019e+06     
      4       1.124739e+06     
      5       1.125227e+06     
      6       1.125732e+06     
 
     NUMBER OF EIGENVALUES CONVERGED UPTO THIS ITERATION = 0
 
     ITERATION 192
      1       1.119675e+06     
      2       1.119837e+06     
      3       1.121981e+06     
      4       1.124729e+06     
      5       1.125224e+06     
      6       1.125727e+06     
 
     NUMBER OF EIGENVALUES CONVERGED UPTO THIS ITERATION = 0
 
     ITERATION 193
      1       1.119633e+06     
      2       1.119794e+06     
      3       1.121943e+06     
      4       1.124719e+06     
      5       1.125221e+06     
      6       1.125723e+06     
 
     NUMBER OF EIGENVALUES CONVERGED UPTO THIS ITERATION = 0
 
     ITERATION 194
      1       1.119590e+06     
      2       1.119752e+06     
      3       1.121904e+06     
      4       1.124709e+06     
      5       1.125217e+06     
      6       1.125719e+06     
 
     NUMBER OF EIGENVALUES CONVERGED UPTO THIS ITERATION = 0
 
     ITERATION 195
      1       1.119548e+06     
      2       1.119709e+06     
      3       1.121865e+06     
      4       1.124698e+06     
      5       1.125214e+06     
      6       1.125715e+06     
 
     NUMBER OF EIGENVALUES CONVERGED UPTO THIS ITERATION = 0
 
     ITERATION 196
      1       1.119506e+06     
      2       1.119667e+06     
      3       1.121826e+06     
      4       1.124688e+06     
      5       1.125211e+06     
      6       1.125711e+06     
 
     NUMBER OF EIGENVALUES CONVERGED UPTO THIS ITERATION = 0
 
     ITERATION 197
      1       1.119464e+06     
      2       1.119625e+06     
      3       1.121787e+06     
      4       1.124677e+06     
      5       1.125208e+06     
      6       1.125706e+06     
 
     NUMBER OF EIGENVALUES CONVERGED UPTO THIS ITERATION = 0
 
     ITERATION 198
      1       1.119422e+06     
      2       1.119583e+06     
      3       1.121748e+06     
      4       1.124667e+06     
      5       1.125204e+06     
      6       1.125702e+06     
 
     NUMBER OF EIGENVALUES CONVERGED UPTO THIS ITERATION = 0
 
     ITERATION 199
      1       1.119380e+06     
      2       1.119542e+06     
      3       1.121708e+06     
      4       1.124656e+06     
      5       1.125201e+06     
      6       1.125698e+06     
 
     NUMBER OF EIGENVALUES CONVERGED UPTO THIS ITERATION = 0
 
     ITERATION 200
      1       1.119338e+06     
      2       1.119500e+06     
      3       1.121669e+06     
      4       1.124644e+06     
      5       1.125198e+06     
      6       1.125694e+06     
 
     NUMBER OF EIGENVALUES CONVERGED UPTO THIS ITERATION = 0
 
     ITERATION 201
      1       1.119297e+06     
      2       1.119459e+06     
      3       1.121629e+06     
      4       1.124633e+06     
      5       1.125195e+06     
      6       1.125690e+06     
 
     NUMBER OF EIGENVALUES CONVERGED UPTO THIS ITERATION = 0
 
     ITERATION 202
      1       1.119256e+06     
      2       1.119418e+06     
      3       1.121589e+06     
      4       1.124622e+06     
      5       1.125191e+06     
      6       1.125685e+06     
 
     NUMBER OF EIGENVALUES CONVERGED UPTO THIS ITERATION = 0
 
     ITERATION 203
      1       1.119215e+06     
      2       1.119377e+06     
      3       1.121549e+06     
      4       1.124610e+06     
      5       1.125188e+06     
      6       1.125681e+06     
 
     NUMBER OF EIGENVALUES CONVERGED UPTO THIS ITERATION = 0
 
     ITERATION 204
      1       1.119174e+06     
      2       1.119336e+06     
      3       1.121508e+06     
      4       1.124598e+06     
      5       1.125185e+06     
      6       1.125677e+06     
 
     NUMBER OF EIGENVALUES CONVERGED UPTO THIS ITERATION = 0
 
     ITERATION 205
      1       1.119133e+06     
      2       1.119295e+06     
      3       1.121468e+06     
      4       1.124586e+06     
      5       1.125181e+06     
      6       1.125673e+06     
 
     NUMBER OF EIGENVALUES CONVERGED UPTO THIS ITERATION = 0
 
     ITERATION 206
      1       1.119093e+06     
      2       1.119255e+06     
      3       1.121427e+06     
      4       1.124573e+06     
      5       1.125178e+06     
      6       1.125669e+06     
 
     NUMBER OF EIGENVALUES CONVERGED UPTO THIS ITERATION = 0
 
     ITERATION 207
      1       1.119052e+06     
      2       1.119214e+06     
      3       1.121386e+06     
      4       1.124561e+06     
      5       1.125175e+06     
      6       1.125665e+06     
 
     NUMBER OF EIGENVALUES CONVERGED UPTO THIS ITERATION = 0
 
     ITERATION 208
      1       1.119012e+06     
      2       1.119174e+06     
      3       1.121345e+06     
      4       1.124548e+06     
      5       1.125171e+06     
      6       1.125661e+06     
 
     NUMBER OF EIGENVALUES CONVERGED UPTO THIS ITERATION = 0
 
     ITERATION 209
      1       1.118972e+06     
      2       1.119134e+06     
      3       1.121304e+06     
      4       1.124535e+06     
      5       1.125168e+06     
      6       1.125657e+06     
 
     NUMBER OF EIGENVALUES CONVERGED UPTO THIS ITERATION = 0
 
     ITERATION 210
      1       1.118932e+06     
      2       1.119095e+06     
      3       1.121263e+06     
      4       1.124522e+06     
      5       1.125165e+06     
      6       1.125653e+06     
 
     NUMBER OF EIGENVALUES CONVERGED UPTO THIS ITERATION = 0
 
     ITERATION 211
      1       1.118893e+06     
      2       1.119055e+06     
      3       1.121221e+06     
      4       1.124509e+06     
      5       1.125161e+06     
      6       1.125649e+06     
 
     NUMBER OF EIGENVALUES CONVERGED UPTO THIS ITERATION = 0
 
     ITERATION 212
      1       1.118854e+06     
      2       1.119016e+06     
      3       1.121180e+06     
      4       1.124495e+06     
      5       1.125158e+06     
      6       1.125645e+06     
 
     NUMBER OF EIGENVALUES CONVERGED UPTO THIS ITERATION = 0
 
     ITERATION 213
      1       1.118814e+06     
      2       1.118977e+06     
      3       1.121138e+06     
      4       1.124481e+06     
      5       1.125154e+06     
      6       1.125641e+06     
 
     NUMBER OF EIGENVALUES CONVERGED UPTO THIS ITERATION = 0
 
     ITERATION 214
      1       1.118776e+06     
      2       1.118938e+06     
      3       1.121096e+06     
      4       1.124467e+06     
      5       1.125151e+06     
      6       1.125637e+06     
 
     NUMBER OF EIGENVALUES CONVERGED UPTO THIS ITERATION = 0
 
     ITERATION 215
      1       1.118737e+06     
      2       1.118900e+06     
      3       1.121055e+06     
      4       1.124453e+06     
      5       1.125148e+06     
      6       1.125633e+06     
 
     NUMBER OF EIGENVALUES CONVERGED UPTO THIS ITERATION = 0
 
     ITERATION 216
      1       1.118699e+06     
      2       1.118861e+06     
      3       1.121013e+06     
      4       1.124438e+06     
      5       1.125144e+06     
      6       1.125629e+06     
 
     NUMBER OF EIGENVALUES CONVERGED UPTO THIS ITERATION = 0
 
     ITERATION 217
      1       1.118660e+06     
      2       1.118823e+06     
      3       1.120971e+06     
      4       1.124424e+06     
      5       1.125141e+06     
      6       1.125625e+06     
 
     NUMBER OF EIGENVALUES CONVERGED UPTO THIS ITERATION = 0
 
     ITERATION 218
      1       1.118622e+06     
      2       1.118785e+06     
      3       1.120928e+06     
      4       1.124409e+06     
      5       1.125137e+06     
      6       1.125621e+06     
 
     NUMBER OF EIGENVALUES CONVERGED UPTO THIS ITERATION = 0
 
     ITERATION 219
      1       1.118585e+06     
      2       1.118748e+06     
      3       1.120886e+06     
      4       1.124393e+06     
      5       1.125134e+06     
      6       1.125617e+06     
 
     NUMBER OF EIGENVALUES CONVERGED UPTO THIS ITERATION = 0
 
     ITERATION 220
      1       1.118547e+06     
      2       1.118710e+06     
      3       1.120844e+06     
      4       1.124378e+06     
      5       1.125130e+06     
      6       1.125614e+06     
 
     NUMBER OF EIGENVALUES CONVERGED UPTO THIS ITERATION = 0
 
     ITERATION 221
      1       1.118510e+06     
      2       1.118673e+06     
      3       1.120802e+06     
      4       1.124362e+06     
      5       1.125127e+06     
      6       1.125610e+06     
 
     NUMBER OF EIGENVALUES CONVERGED UPTO THIS ITERATION = 0
 
     ITERATION 222
      1       1.118473e+06     
      2       1.118636e+06     
      3       1.120759e+06     
      4       1.124346e+06     
      5       1.125123e+06     
      6       1.125606e+06     
 
     NUMBER OF EIGENVALUES CONVERGED UPTO THIS ITERATION = 0
 
     ITERATION 223
      1       1.118437e+06     
      2       1.118599e+06     
      3       1.120717e+06     
      4       1.124330e+06     
      5       1.125120e+06     
      6       1.125602e+06     
 
     NUMBER OF EIGENVALUES CONVERGED UPTO THIS ITERATION = 0
 
     ITERATION 224
      1       1.118400e+06     
      2       1.118563e+06     
      3       1.120674e+06     
      4       1.124313e+06     
      5       1.125116e+06     
      6       1.125598e+06     
 
     NUMBER OF EIGENVALUES CONVERGED UPTO THIS ITERATION = 0
 
     ITERATION 225
      1       1.118364e+06     
      2       1.118527e+06     
      3       1.120632e+06     
      4       1.124297e+06     
      5       1.125112e+06     
      6       1.125595e+06     
 
     NUMBER OF EIGENVALUES CONVERGED UPTO THIS ITERATION = 0
 
     ITERATION 226
      1       1.118328e+06     
      2       1.118491e+06     
      3       1.120589e+06     
      4       1.124280e+06     
      5       1.125109e+06     
      6       1.125591e+06     
 
     NUMBER OF EIGENVALUES CONVERGED UPTO THIS ITERATION = 0
 
     ITERATION 227
      1       1.118292e+06     
      2       1.118455e+06     
      3       1.120546e+06     
      4       1.124262e+06     
      5       1.125105e+06     
      6       1.125587e+06     
 
     NUMBER OF EIGENVALUES CONVERGED UPTO THIS ITERATION = 0
 
     ITERATION 228
      1       1.118257e+06     
      2       1.118420e+06     
      3       1.120503e+06     
      4       1.124245e+06     
      5       1.125102e+06     
      6       1.125583e+06     
 
     NUMBER OF EIGENVALUES CONVERGED UPTO THIS ITERATION = 0
 
     ITERATION 229
      1       1.118222e+06     
      2       1.118385e+06     
      3       1.120461e+06     
      4       1.124227e+06     
      5       1.125098e+06     
      6       1.125580e+06     
 
     NUMBER OF EIGENVALUES CONVERGED UPTO THIS ITERATION = 0
 
     ITERATION 230
      1       1.118187e+06     
      2       1.118350e+06     
      3       1.120418e+06     
      4       1.124209e+06     
      5       1.125095e+06     
      6       1.125576e+06     
 
     NUMBER OF EIGENVALUES CONVERGED UPTO THIS ITERATION = 0
 
     ITERATION 231
      1       1.118153e+06     
      2       1.118316e+06     
      3       1.120375e+06     
      4       1.124191e+06     
      5       1.125091e+06     
      6       1.125572e+06     
 
     NUMBER OF EIGENVALUES CONVERGED UPTO THIS ITERATION = 0
 
     ITERATION 232
      1       1.118118e+06     
      2       1.118281e+06     
      3       1.120332e+06     
      4       1.124172e+06     
      5       1.125087e+06     
      6       1.125569e+06     
 
     NUMBER OF EIGENVALUES CONVERGED UPTO THIS ITERATION = 0
 
     ITERATION 233
      1       1.118084e+06     
      2       1.118247e+06     
      3       1.120290e+06     
      4       1.124153e+06     
      5       1.125084e+06     
      6       1.125565e+06     
 
     NUMBER OF EIGENVALUES CONVERGED UPTO THIS ITERATION = 0
 
     ITERATION 234
      1       1.118051e+06     
      2       1.118214e+06     
      3       1.120247e+06     
      4       1.124134e+06     
      5       1.125080e+06     
      6       1.125561e+06     
 
     NUMBER OF EIGENVALUES CONVERGED UPTO THIS ITERATION = 0
 
     ITERATION 235
      1       1.118017e+06     
      2       1.118180e+06     
      3       1.120204e+06     
      4       1.124114e+06     
      5       1.125076e+06     
      6       1.125558e+06     
 
     NUMBER OF EIGENVALUES CONVERGED UPTO THIS ITERATION = 0
 
     ITERATION 236
      1       1.117984e+06     
      2       1.118147e+06     
      3       1.120161e+06     
      4       1.124095e+06     
      5       1.125073e+06     
      6       1.125554e+06     
 
     NUMBER OF EIGENVALUES CONVERGED UPTO THIS ITERATION = 0
 
     ITERATION 237
      1       1.117951e+06     
      2       1.118114e+06     
      3       1.120119e+06     
      4       1.124075e+06     
      5       1.125069e+06     
      6       1.125551e+06     
 
     NUMBER OF EIGENVALUES CONVERGED UPTO THIS ITERATION = 0
 
     ITERATION 238
      1       1.117918e+06     
      2       1.118081e+06     
      3       1.120076e+06     
      4       1.124054e+06     
      5       1.125065e+06     
      6       1.125547e+06     
 
     NUMBER OF EIGENVALUES CONVERGED UPTO THIS ITERATION = 0
 
     ITERATION 239
      1       1.117886e+06     
      2       1.118049e+06     
      3       1.120033e+06     
      4       1.124034e+06     
      5       1.125062e+06     
      6       1.125544e+06     
 
     NUMBER OF EIGENVALUES CONVERGED UPTO THIS ITERATION = 0
 
     ITERATION 240
      1       1.117854e+06     
      2       1.118017e+06     
      3       1.119991e+06     
      4       1.124013e+06     
      5       1.125058e+06     
      6       1.125540e+06     
 
     NUMBER OF EIGENVALUES CONVERGED UPTO THIS ITERATION = 0
 
     ITERATION 241
      1       1.117822e+06     
      2       1.117985e+06     
      3       1.119948e+06     
      4       1.123991e+06     
      5       1.125054e+06     
      6       1.125537e+06     
 
     NUMBER OF EIGENVALUES CONVERGED UPTO THIS ITERATION = 0
 
     ITERATION 242
      1       1.117791e+06     
      2       1.117954e+06     
      3       1.119906e+06     
      4       1.123970e+06     
      5       1.125050e+06     
      6       1.125533e+06     
 
     NUMBER OF EIGENVALUES CONVERGED UPTO THIS ITERATION = 0
 
     ITERATION 243
      1       1.117760e+06     
      2       1.117923e+06     
      3       1.119863e+06     
      4       1.123948e+06     
      5       1.125047e+06     
      6       1.125530e+06     
 
     NUMBER OF EIGENVALUES CONVERGED UPTO THIS ITERATION = 0
 
     ITERATION 244
      1       1.117729e+06     
      2       1.117892e+06     
      3       1.119821e+06     
      4       1.123926e+06     
      5       1.125043e+06     
      6       1.125526e+06     
 
     NUMBER OF EIGENVALUES CONVERGED UPTO THIS ITERATION = 0
 
     ITERATION 245
      1       1.117698e+06     
      2       1.117861e+06     
      3       1.119778e+06     
      4       1.123904e+06     
      5       1.125039e+06     
      6       1.125523e+06     
 
     NUMBER OF EIGENVALUES CONVERGED UPTO THIS ITERATION = 0
 
     ITERATION 246
      1       1.117668e+06     
      2       1.117831e+06     
      3       1.119736e+06     
      4       1.123881e+06     
      5       1.125035e+06     
      6       1.125520e+06     
 
     NUMBER OF EIGENVALUES CONVERGED UPTO THIS ITERATION = 0
 
     ITERATION 247
      1       1.117638e+06     
      2       1.117801e+06     
      3       1.119694e+06     
      4       1.123858e+06     
      5       1.125032e+06     
      6       1.125516e+06     
 
     NUMBER OF EIGENVALUES CONVERGED UPTO THIS ITERATION = 0
 
     ITERATION 248
      1       1.117608e+06     
      2       1.117771e+06     
      3       1.119652e+06     
      4       1.123835e+06     
      5       1.125028e+06     
      6       1.125513e+06     
 
     NUMBER OF EIGENVALUES CONVERGED UPTO THIS ITERATION = 0
 
     ITERATION 249
      1       1.117579e+06     
      2       1.117742e+06     
      3       1.119610e+06     
      4       1.123811e+06     
      5       1.125024e+06     
      6       1.125510e+06     
 
     NUMBER OF EIGENVALUES CONVERGED UPTO THIS ITERATION = 0
 
     ITERATION 250
      1       1.117550e+06     
      2       1.117712e+06     
      3       1.119568e+06     
      4       1.123787e+06     
      5       1.125020e+06     
      6       1.125506e+06     
 
     NUMBER OF EIGENVALUES CONVERGED UPTO THIS ITERATION = 0
 
     ITERATION 251
      1       1.117521e+06     
      2       1.117684e+06     
      3       1.119526e+06     
      4       1.123763e+06     
      5       1.125016e+06     
      6       1.125503e+06     
 
     NUMBER OF EIGENVALUES CONVERGED UPTO THIS ITERATION = 0
 
     ITERATION 252
      1       1.117492e+06     
      2       1.117655e+06     
      3       1.119485e+06     
      4       1.123738e+06     
      5       1.125012e+06     
      6       1.125500e+06     
 
     NUMBER OF EIGENVALUES CONVERGED UPTO THIS ITERATION = 0
 
     ITERATION 253
      1       1.117464e+06     
      2       1.117627e+06     
      3       1.119443e+06     
      4       1.123713e+06     
      5       1.125009e+06     
      6       1.125496e+06     
 
     NUMBER OF EIGENVALUES CONVERGED UPTO THIS ITERATION = 0
 
     ITERATION 254
      1       1.117436e+06     
      2       1.117599e+06     
      3       1.119402e+06     
      4       1.123688e+06     
      5       1.125005e+06     
      6       1.125493e+06     
 
     NUMBER OF EIGENVALUES CONVERGED UPTO THIS ITERATION = 0
 
     ITERATION 255
      1       1.117408e+06     
      2       1.117571e+06     
      3       1.119360e+06     
      4       1.123663e+06     
      5       1.125001e+06     
      6       1.125490e+06     
 
     NUMBER OF EIGENVALUES CONVERGED UPTO THIS ITERATION = 0
 
     ITERATION 256
      1       1.117381e+06     
      2       1.117544e+06     
      3       1.119319e+06     
      4       1.123637e+06     
      5       1.124997e+06     
      6       1.125487e+06     
 
     NUMBER OF EIGENVALUES CONVERGED UPTO THIS ITERATION = 0
 
     ITERATION 257
      1       1.117354e+06     
      2       1.117517e+06     
      3       1.119278e+06     
      4       1.123611e+06     
      5       1.124993e+06     
      6       1.125484e+06     
 
     NUMBER OF EIGENVALUES CONVERGED UPTO THIS ITERATION = 0
 
     ITERATION 258
      1       1.117327e+06     
      2       1.117490e+06     
      3       1.119237e+06     
      4       1.123584e+06     
      5       1.124989e+06     
      6       1.125480e+06     
 
     NUMBER OF EIGENVALUES CONVERGED UPTO THIS ITERATION = 0
 
     ITERATION 259
      1       1.117301e+06     
      2       1.117463e+06     
      3       1.119197e+06     
      4       1.123557e+06     
      5       1.124985e+06     
      6       1.125477e+06     
 
     NUMBER OF EIGENVALUES CONVERGED UPTO THIS ITERATION = 0
 
     ITERATION 260
      1       1.117274e+06     
      2       1.117437e+06     
      3       1.119156e+06     
      4       1.123530e+06     
      5       1.124981e+06     
      6       1.125474e+06     
 
     NUMBER OF EIGENVALUES CONVERGED UPTO THIS ITERATION = 0
 
     ITERATION 261
      1       1.117248e+06     
      2       1.117411e+06     
      3       1.119116e+06     
      4       1.123503e+06     
      5       1.124977e+06     
      6       1.125471e+06     
 
     NUMBER OF EIGENVALUES CONVERGED UPTO THIS ITERATION = 0
 
     ITERATION 262
      1       1.117223e+06     
      2       1.117385e+06     
      3       1.119075e+06     
      4       1.123475e+06     
      5       1.124973e+06     
      6       1.125468e+06     
 
     NUMBER OF EIGENVALUES CONVERGED UPTO THIS ITERATION = 0
 
     ITERATION 263
      1       1.117197e+06     
      2       1.117360e+06     
      3       1.119035e+06     
      4       1.123447e+06     
      5       1.124969e+06     
      6       1.125465e+06     
 
     NUMBER OF EIGENVALUES CONVERGED UPTO THIS ITERATION = 0
 
     ITERATION 264
      1       1.117172e+06     
      2       1.117335e+06     
      3       1.118995e+06     
      4       1.123419e+06     
      5       1.124965e+06     
      6       1.125461e+06     
 
     NUMBER OF EIGENVALUES CONVERGED UPTO THIS ITERATION = 0
 
     ITERATION 265
      1       1.117147e+06     
      2       1.117310e+06     
      3       1.118956e+06     
      4       1.123390e+06     
      5       1.124961e+06     
      6       1.125458e+06     
 
     NUMBER OF EIGENVALUES CONVERGED UPTO THIS ITERATION = 0
 
     ITERATION 266
      1       1.117123e+06     
      2       1.117285e+06     
      3       1.118916e+06     
      4       1.123361e+06     
      5       1.124957e+06     
      6       1.125455e+06     
 
     NUMBER OF EIGENVALUES CONVERGED UPTO THIS ITERATION = 0
 
     ITERATION 267
      1       1.117099e+06     
      2       1.117261e+06     
      3       1.118877e+06     
      4       1.123332e+06     
      5       1.124953e+06     
      6       1.125452e+06     
 
     NUMBER OF EIGENVALUES CONVERGED UPTO THIS ITERATION = 0
 
     ITERATION 268
      1       1.117075e+06     
      2       1.117237e+06     
      3       1.118838e+06     
      4       1.123302e+06     
      5       1.124949e+06     
      6       1.125449e+06     
 
     NUMBER OF EIGENVALUES CONVERGED UPTO THIS ITERATION = 0
 
     ITERATION 269
      1       1.117051e+06     
      2       1.117213e+06     
      3       1.118799e+06     
      4       1.123272e+06     
      5       1.124945e+06     
      6       1.125446e+06     
 
     NUMBER OF EIGENVALUES CONVERGED UPTO THIS ITERATION = 0
 
     ITERATION 270
      1       1.117027e+06     
      2       1.117190e+06     
      3       1.118760e+06     
      4       1.123242e+06     
      5       1.124941e+06     
      6       1.125443e+06     
 
     NUMBER OF EIGENVALUES CONVERGED UPTO THIS ITERATION = 0
 
     ITERATION 271
      1       1.117004e+06     
      2       1.117166e+06     
      3       1.118721e+06     
      4       1.123211e+06     
      5       1.124937e+06     
      6       1.125440e+06     
 
     NUMBER OF EIGENVALUES CONVERGED UPTO THIS ITERATION = 0
 
     ITERATION 272
      1       1.116981e+06     
      2       1.117143e+06     
      3       1.118683e+06     
      4       1.123180e+06     
      5       1.124933e+06     
      6       1.125437e+06     
 
     NUMBER OF EIGENVALUES CONVERGED UPTO THIS ITERATION = 0
 
     ITERATION 273
      1       1.116959e+06     
      2       1.117121e+06     
      3       1.118645e+06     
      4       1.123149e+06     
      5       1.124929e+06     
      6       1.125434e+06     
 
     NUMBER OF EIGENVALUES CONVERGED UPTO THIS ITERATION = 0
 
     ITERATION 274
      1       1.116936e+06     
      2       1.117098e+06     
      3       1.118607e+06     
      4       1.123117e+06     
      5       1.124925e+06     
      6       1.125431e+06     
 
     NUMBER OF EIGENVALUES CONVERGED UPTO THIS ITERATION = 0
 
     ITERATION 275
      1       1.116914e+06     
      2       1.117076e+06     
      3       1.118569e+06     
      4       1.123085e+06     
      5       1.124921e+06     
      6       1.125428e+06     
 
     NUMBER OF EIGENVALUES CONVERGED UPTO THIS ITERATION = 0
 
     ITERATION 276
      1       1.116893e+06     
      2       1.117055e+06     
      3       1.118532e+06     
      4       1.123053e+06     
      5       1.124917e+06     
      6       1.125425e+06     
 
     NUMBER OF EIGENVALUES CONVERGED UPTO THIS ITERATION = 0
 
     ITERATION 277
      1       1.116871e+06     
      2       1.117033e+06     
      3       1.118494e+06     
      4       1.123021e+06     
      5       1.124913e+06     
      6       1.125422e+06     
 
     NUMBER OF EIGENVALUES CONVERGED UPTO THIS ITERATION = 0
 
     ITERATION 278
      1       1.116850e+06     
      2       1.117012e+06     
      3       1.118457e+06     
      4       1.122988e+06     
      5       1.124909e+06     
      6       1.125419e+06     
 
     NUMBER OF EIGENVALUES CONVERGED UPTO THIS ITERATION = 0
 
     ITERATION 279
      1       1.116829e+06     
      2       1.116991e+06     
      3       1.118421e+06     
      4       1.122955e+06     
      5       1.124904e+06     
      6       1.125416e+06     
 
     NUMBER OF EIGENVALUES CONVERGED UPTO THIS ITERATION = 0
 
     ITERATION 280
      1       1.116808e+06     
      2       1.116970e+06     
      3       1.118384e+06     
      4       1.122921e+06     
      5       1.124900e+06     
      6       1.125413e+06     
 
     NUMBER OF EIGENVALUES CONVERGED UPTO THIS ITERATION = 0
 
     ITERATION 281
      1       1.116787e+06     
      2       1.116949e+06     
      3       1.118348e+06     
      4       1.122888e+06     
      5       1.124896e+06     
      6       1.125410e+06     
 
     NUMBER OF EIGENVALUES CONVERGED UPTO THIS ITERATION = 0
 
     ITERATION 282
      1       1.116767e+06     
      2       1.116929e+06     
      3       1.118312e+06     
      4       1.122854e+06     
      5       1.124892e+06     
      6       1.125407e+06     
 
     NUMBER OF EIGENVALUES CONVERGED UPTO THIS ITERATION = 0
 
     ITERATION 283
      1       1.116747e+06     
      2       1.116909e+06     
      3       1.118276e+06     
      4       1.122819e+06     
      5       1.124888e+06     
      6       1.125404e+06     
 
     NUMBER OF EIGENVALUES CONVERGED UPTO THIS ITERATION = 0
 
     ITERATION 284
      1       1.116727e+06     
      2       1.116889e+06     
      3       1.118240e+06     
      4       1.122785e+06     
      5       1.124884e+06     
      6       1.125402e+06     
 
[...]
      1       1.115398e+06     
      2       1.115445e+06     
      3       1.115623e+06     
      4       1.116190e+06     
      5       1.123832e+06     
      6       1.124800e+06     
 
     NUMBER OF EIGENVALUES CONVERGED UPTO THIS ITERATION = 1
 
     ITERATION 485
      1       1.115396e+06     
      2       1.115444e+06     
      3       1.115622e+06     
      4       1.116179e+06     
      5       1.123826e+06     
      6       1.124797e+06     
 
     NUMBER OF EIGENVALUES CONVERGED UPTO THIS ITERATION = 1
 
     ITERATION 486
      1       1.115394e+06     
      2       1.115442e+06     
      3       1.115621e+06     
      4       1.116168e+06     
      5       1.123820e+06     
      6       1.124793e+06     
 
     NUMBER OF EIGENVALUES CONVERGED UPTO THIS ITERATION = 1
 
     ITERATION 487
      1       1.115392e+06     
      2       1.115440e+06     
      3       1.115620e+06     
      4       1.116157e+06     
      5       1.123814e+06     
      6       1.124790e+06     
 
     NUMBER OF EIGENVALUES CONVERGED UPTO THIS ITERATION = 1
 
     ITERATION 488
      1       1.115390e+06     
      2       1.115438e+06     
      3       1.115620e+06     
      4       1.116146e+06     
      5       1.123808e+06     
      6       1.124786e+06     
 
     NUMBER OF EIGENVALUES CONVERGED UPTO THIS ITERATION = 1
 
     ITERATION 489
      1       1.115388e+06     
      2       1.115436e+06     
      3       1.115619e+06     
      4       1.116135e+06     
      5       1.123802e+06     
      6       1.124782e+06     
 
     NUMBER OF EIGENVALUES CONVERGED UPTO THIS ITERATION = 1
 
     ITERATION 490
      1       1.115387e+06     
      2       1.115434e+06     
      3       1.115618e+06     
      4       1.116125e+06     
      5       1.123796e+06     
      6       1.124779e+06     
 
     NUMBER OF EIGENVALUES CONVERGED UPTO THIS ITERATION = 1
 
     ITERATION 491
      1       1.115385e+06     
      2       1.115433e+06     
      3       1.115617e+06     
      4       1.116115e+06     
      5       1.123790e+06     
      6       1.124775e+06     
 
     NUMBER OF EIGENVALUES CONVERGED UPTO THIS ITERATION = 1
 
     ITERATION 492
      1       1.115383e+06     
      2       1.115431e+06     
      3       1.115616e+06     
      4       1.116104e+06     
      5       1.123784e+06     
      6       1.124771e+06     
 
     NUMBER OF EIGENVALUES CONVERGED UPTO THIS ITERATION = 1
 
     ITERATION 493
      1       1.115381e+06     
      2       1.115429e+06     
      3       1.115616e+06     
      4       1.116095e+06     
      5       1.123778e+06     
      6       1.124768e+06     
 
     NUMBER OF EIGENVALUES CONVERGED UPTO THIS ITERATION = 1
 
     ITERATION 494
      1       1.115380e+06     
      2       1.115427e+06     
      3       1.115615e+06     
      4       1.116085e+06     
      5       1.123772e+06     
      6       1.124764e+06     
 
     NUMBER OF EIGENVALUES CONVERGED UPTO THIS ITERATION = 1
 
     ITERATION 495
      1       1.115378e+06     
      2       1.115426e+06     
      3       1.115614e+06     
      4       1.116075e+06     
      5       1.123766e+06     
      6       1.124760e+06     
 
     NUMBER OF EIGENVALUES CONVERGED UPTO THIS ITERATION = 1
 
     ITERATION 496
      1       1.115376e+06     
      2       1.115424e+06     
      3       1.115614e+06     
      4       1.116066e+06     
      5       1.123760e+06     
      6       1.124757e+06     
 
     NUMBER OF EIGENVALUES CONVERGED UPTO THIS ITERATION = 1
 
     ITERATION 497
      1       1.115375e+06     
      2       1.115422e+06     
      3       1.115613e+06     
      4       1.116057e+06     
      5       1.123754e+06     
      6       1.124753e+06     
 
     NUMBER OF EIGENVALUES CONVERGED UPTO THIS ITERATION = 1
 
     ITERATION 498
      1       1.115373e+06     
      2       1.115421e+06     
      3       1.115612e+06     
      4       1.116047e+06     
      5       1.123748e+06     
      6       1.124749e+06     
 
     NUMBER OF EIGENVALUES CONVERGED UPTO THIS ITERATION = 1
 
     ITERATION 499
      1       1.115372e+06     
      2       1.115419e+06     
      3       1.115612e+06     
      4       1.116039e+06     
      5       1.123742e+06     
      6       1.124746e+06     
 
     NUMBER OF EIGENVALUES CONVERGED UPTO THIS ITERATION = 1
 
     ITERATION 500
      1       1.115370e+06     
      2       1.115418e+06     
      3       1.115611e+06     
      4       1.116030e+06     
      5       1.123736e+06     
      6       1.124742e+06     
 
     NUMBER OF EIGENVALUES CONVERGED UPTO THIS ITERATION = 1
 
     ITERATION 501
      1       1.115368e+06     
      2       1.115416e+06     
      3       1.115610e+06     
      4       1.116021e+06     
      5       1.123730e+06     
      6       1.124738e+06     
 
     NUMBER OF EIGENVALUES CONVERGED UPTO THIS ITERATION = 1
 
     ITERATION 502
      1       1.115367e+06     
      2       1.115414e+06     
      3       1.115610e+06     
      4       1.116013e+06     
      5       1.123724e+06     
      6       1.124734e+06     
 
     NUMBER OF EIGENVALUES CONVERGED UPTO THIS ITERATION = 1
 
     ITERATION 503
      1       1.115365e+06     
      2       1.115413e+06     
      3       1.115609e+06     
      4       1.116004e+06     
      5       1.123718e+06     
      6       1.124731e+06     
 
     NUMBER OF EIGENVALUES CONVERGED UPTO THIS ITERATION = 1
 
     ITERATION 504
      1       1.115364e+06     
      2       1.115411e+06     
      3       1.115608e+06     
      4       1.115996e+06     
      5       1.123712e+06     
      6       1.124727e+06     
 
     NUMBER OF EIGENVALUES CONVERGED UPTO THIS ITERATION = 1
 
     ITERATION 505
      1       1.115362e+06     
      2       1.115410e+06     
      3       1.115608e+06     
      4       1.115988e+06     
      5       1.123706e+06     
      6       1.124723e+06     
 
     NUMBER OF EIGENVALUES CONVERGED UPTO THIS ITERATION = 1
 
     ITERATION 506
      1       1.115361e+06     
      2       1.115408e+06     
      3       1.115607e+06     
      4       1.115980e+06     
      5       1.123700e+06     
      6       1.124720e+06     
 
     NUMBER OF EIGENVALUES CONVERGED UPTO THIS ITERATION = 1
 
     ITERATION 507
      1       1.115359e+06     
      2       1.115407e+06     
      3       1.115607e+06     
      4       1.115972e+06     
      5       1.123694e+06     
      6       1.124716e+06     
 
     NUMBER OF EIGENVALUES CONVERGED UPTO THIS ITERATION = 1
 
     ITERATION 508
      1       1.115358e+06     
      2       1.115405e+06     
      3       1.115606e+06     
      4       1.115965e+06     
      5       1.123688e+06     
      6       1.124712e+06     
 
     NUMBER OF EIGENVALUES CONVERGED UPTO THIS ITERATION = 1
 
     ITERATION 509
      1       1.115356e+06     
      2       1.115404e+06     
      3       1.115605e+06     
      4       1.115957e+06     
      5       1.123682e+06     
      6       1.124708e+06     
 
     NUMBER OF EIGENVALUES CONVERGED UPTO THIS ITERATION = 1
 
     ITERATION 510
      1       1.115355e+06     
      2       1.115402e+06     
      3       1.115605e+06     
      4       1.115950e+06     
      5       1.123676e+06     
      6       1.124704e+06     
 
     NUMBER OF EIGENVALUES CONVERGED UPTO THIS ITERATION = 1
 
     ITERATION 511
      1       1.115354e+06     
      2       1.115401e+06     
      3       1.115604e+06     
      4       1.115943e+06     
      5       1.123670e+06     
      6       1.124701e+06     
 
     NUMBER OF EIGENVALUES CONVERGED UPTO THIS ITERATION = 1
 
     ITERATION 512
      1       1.115352e+06     
      2       1.115400e+06     
      3       1.115604e+06     
      4       1.115936e+06     
      5       1.123664e+06     
      6       1.124697e+06     
 
     NUMBER OF EIGENVALUES CONVERGED UPTO THIS ITERATION = 1
 
     ITERATION 513
      1       1.115351e+06     
      2       1.115398e+06     
      3       1.115603e+06     
      4       1.115929e+06     
      5       1.123658e+06     
      6       1.124693e+06     
 
     NUMBER OF EIGENVALUES CONVERGED UPTO THIS ITERATION = 1
 
     ITERATION 514
      1       1.115350e+06     
      2       1.115397e+06     
      3       1.115603e+06     
      4       1.115922e+06     
      5       1.123652e+06     
      6       1.124689e+06     
 
     NUMBER OF EIGENVALUES CONVERGED UPTO THIS ITERATION = 1
 
     ITERATION 515
      1       1.115348e+06     
      2       1.115395e+06     
      3       1.115602e+06     
      4       1.115915e+06     
      5       1.123646e+06     
      6       1.124685e+06     
 
     NUMBER OF EIGENVALUES CONVERGED UPTO THIS ITERATION = 1
 
     ITERATION 516
      1       1.115347e+06     
      2       1.115394e+06     
      3       1.115602e+06     
      4       1.115909e+06     
      5       1.123640e+06     
      6       1.124681e+06     
 
     NUMBER OF EIGENVALUES CONVERGED UPTO THIS ITERATION = 1
 
     ITERATION 517
      1       1.115346e+06     
      2       1.115393e+06     
      3       1.115601e+06     
      4       1.115902e+06     
      5       1.123634e+06     
      6       1.124678e+06     
 
     NUMBER OF EIGENVALUES CONVERGED UPTO THIS ITERATION = 1
 
     ITERATION 518
      1       1.115344e+06     
      2       1.115391e+06     
      3       1.115601e+06     
      4       1.115896e+06     
      5       1.123628e+06     
      6       1.124674e+06     
 
     NUMBER OF EIGENVALUES CONVERGED UPTO THIS ITERATION = 1
 
     ITERATION 519
      1       1.115343e+06     
      2       1.115390e+06     
      3       1.115600e+06     
      4       1.115890e+06     
      5       1.123622e+06     
      6       1.124670e+06     
 
     NUMBER OF EIGENVALUES CONVERGED UPTO THIS ITERATION = 1
 
     ITERATION 520
      1       1.115342e+06     
      2       1.115389e+06     
      3       1.115600e+06     
      4       1.115883e+06     
      5       1.123616e+06     
      6       1.124666e+06     
 
     NUMBER OF EIGENVALUES CONVERGED UPTO THIS ITERATION = 1
 
     ITERATION 521
      1       1.115341e+06     
      2       1.115387e+06     
      3       1.115599e+06     
      4       1.115877e+06     
      5       1.123610e+06     
      6       1.124662e+06     
 
     NUMBER OF EIGENVALUES CONVERGED UPTO THIS ITERATION = 1
 
     ITERATION 522
      1       1.115340e+06     
      2       1.115386e+06     
      3       1.115599e+06     
      4       1.115872e+06     
      5       1.123604e+06     
      6       1.124658e+06     
 
     NUMBER OF EIGENVALUES CONVERGED UPTO THIS ITERATION = 1
 
     ITERATION 523
      1       1.115338e+06     
      2       1.115385e+06     
      3       1.115598e+06     
      4       1.115866e+06     
      5       1.123599e+06     
      6       1.124654e+06     
 
     NUMBER OF EIGENVALUES CONVERGED UPTO THIS ITERATION = 1
 
     ITERATION 524
      1       1.115337e+06     
      2       1.115383e+06     
      3       1.115598e+06     
      4       1.115860e+06     
      5       1.123593e+06     
      6       1.124650e+06     
 
     NUMBER OF EIGENVALUES CONVERGED UPTO THIS ITERATION = 1
 
     ITERATION 525
      1       1.115336e+06     
      2       1.115382e+06     
      3       1.115598e+06     
      4       1.115855e+06     
      5       1.123587e+06     
      6       1.124647e+06     
 
     NUMBER OF EIGENVALUES CONVERGED UPTO THIS ITERATION = 1
 
     ITERATION 526
      1       1.115335e+06     
      2       1.115381e+06     
      3       1.115597e+06     
      4       1.115849e+06     
      5       1.123581e+06     
      6       1.124643e+06     
 
     NUMBER OF EIGENVALUES CONVERGED UPTO THIS ITERATION = 1
 
     ITERATION 527
      1       1.115334e+06     
      2       1.115379e+06     
      3       1.115597e+06     
      4       1.115844e+06     
      5       1.123575e+06     
      6       1.124639e+06     
 
     NUMBER OF EIGENVALUES CONVERGED UPTO THIS ITERATION = 2
 
     ITERATION 528
      1       1.115333e+06     
      2       1.115378e+06     
      3       1.115596e+06     
      4       1.115838e+06     
      5       1.123569e+06     
      6       1.124635e+06     
 
     NUMBER OF EIGENVALUES CONVERGED UPTO THIS ITERATION = 2
 
     ITERATION 529
      1       1.115332e+06     
      2       1.115377e+06     
      3       1.115596e+06     
      4       1.115833e+06     
      5       1.123563e+06     
      6       1.124631e+06     
 
     NUMBER OF EIGENVALUES CONVERGED UPTO THIS ITERATION = 2
 
     ITERATION 530
      1       1.115331e+06     
      2       1.115375e+06     
      3       1.115596e+06     
      4       1.115828e+06     
      5       1.123557e+06     
      6       1.124627e+06     
 
     NUMBER OF EIGENVALUES CONVERGED UPTO THIS ITERATION = 2
 
     ITERATION 531
      1       1.115330e+06     
      2       1.115374e+06     
      3       1.115595e+06     
      4       1.115823e+06     
      5       1.123551e+06     
      6       1.124623e+06     
 
     NUMBER OF EIGENVALUES CONVERGED UPTO THIS ITERATION = 2
 
     ITERATION 532
      1       1.115329e+06     
      2       1.115373e+06     
      3       1.115595e+06     
      4       1.115818e+06     
      5       1.123545e+06     
      6       1.124619e+06     
 
     NUMBER OF EIGENVALUES CONVERGED UPTO THIS ITERATION = 2
 
     ITERATION 533
      1       1.115328e+06     
      2       1.115372e+06     
      3       1.115594e+06     
      4       1.115814e+06     
      5       1.123539e+06     
      6       1.124615e+06     
 
     NUMBER OF EIGENVALUES CONVERGED UPTO THIS ITERATION = 2
 
     ITERATION 534
      1       1.115327e+06     
      2       1.115370e+06     
      3       1.115594e+06     
      4       1.115809e+06     
      5       1.123533e+06     
      6       1.124611e+06     
 
     NUMBER OF EIGENVALUES CONVERGED UPTO THIS ITERATION = 2
 
     ITERATION 535
      1       1.115326e+06     
      2       1.115369e+06     
      3       1.115594e+06     
      4       1.115804e+06     
      5       1.123527e+06     
      6       1.124607e+06     
 
     NUMBER OF EIGENVALUES CONVERGED UPTO THIS ITERATION = 2
 
     ITERATION 536
      1       1.115325e+06     
      2       1.115368e+06     
      3       1.115593e+06     
      4       1.115800e+06     
      5       1.123522e+06     
      6       1.124603e+06     
 
     NUMBER OF EIGENVALUES CONVERGED UPTO THIS ITERATION = 2
 
     ITERATION 537
      1       1.115324e+06     
      2       1.115367e+06     
      3       1.115593e+06     
      4       1.115796e+06     
      5       1.123516e+06     
      6       1.124599e+06     
 
     NUMBER OF EIGENVALUES CONVERGED UPTO THIS ITERATION = 2
 
     ITERATION 538
      1       1.115323e+06     
      2       1.115366e+06     
      3       1.115593e+06     
      4       1.115791e+06     
      5       1.123510e+06     
      6       1.124595e+06     
 
     NUMBER OF EIGENVALUES CONVERGED UPTO THIS ITERATION = 2
 
     ITERATION 539
      1       1.115322e+06     
      2       1.115364e+06     
      3       1.115592e+06     
      4       1.115787e+06     
      5       1.123504e+06     
      6       1.124591e+06     
 
     NUMBER OF EIGENVALUES CONVERGED UPTO THIS ITERATION = 2
 
     ITERATION 540
      1       1.115321e+06     
      2       1.115363e+06     
      3       1.115592e+06     
      4       1.115783e+06     
      5       1.123498e+06     
      6       1.124587e+06     
 
     NUMBER OF EIGENVALUES CONVERGED UPTO THIS ITERATION = 2
 
     ITERATION 541
      1       1.115320e+06     
      2       1.115362e+06     
      3       1.115592e+06     
      4       1.115779e+06     
      5       1.123492e+06     
      6       1.124583e+06     
 
     NUMBER OF EIGENVALUES CONVERGED UPTO THIS ITERATION = 2
 
     ITERATION 542
      1       1.115319e+06     
      2       1.115361e+06     
      3       1.115591e+06     
      4       1.115775e+06     
      5       1.123486e+06     
      6       1.124579e+06     
 
     NUMBER OF EIGENVALUES CONVERGED UPTO THIS ITERATION = 2
 
     ITERATION 543
      1       1.115318e+06     
      2       1.115360e+06     
      3       1.115591e+06     
      4       1.115771e+06     
      5       1.123480e+06     
      6       1.124575e+06     
 
     NUMBER OF EIGENVALUES CONVERGED UPTO THIS ITERATION = 2
 
     ITERATION 544
      1       1.115317e+06     
      2       1.115358e+06     
      3       1.115591e+06     
      4       1.115767e+06     
      5       1.123474e+06     
      6       1.124571e+06     
 
     NUMBER OF EIGENVALUES CONVERGED UPTO THIS ITERATION = 2
 
     ITERATION 545
      1       1.115316e+06     
      2       1.115357e+06     
      3       1.115590e+06     
      4       1.115763e+06     
      5       1.123469e+06     
      6       1.124567e+06     
 
     NUMBER OF EIGENVALUES CONVERGED UPTO THIS ITERATION = 2
 
     ITERATION 546
      1       1.115316e+06     
      2       1.115356e+06     
      3       1.115590e+06     
      4       1.115760e+06     
      5       1.123463e+06     
      6       1.124563e+06     
 
     NUMBER OF EIGENVALUES CONVERGED UPTO THIS ITERATION = 2
 
     ITERATION 547
      1       1.115315e+06     
      2       1.115355e+06     
      3       1.115590e+06     
      4       1.115756e+06     
      5       1.123457e+06     
      6       1.124558e+06     
 
     NUMBER OF EIGENVALUES CONVERGED UPTO THIS ITERATION = 2
 
     ITERATION 548
      1       1.115314e+06     
      2       1.115354e+06     
      3       1.115589e+06     
      4       1.115752e+06     
      5       1.123451e+06     
      6       1.124554e+06     
 
     NUMBER OF EIGENVALUES CONVERGED UPTO THIS ITERATION = 2
 
     ITERATION 549
      1       1.115313e+06     
      2       1.115353e+06     
      3       1.115589e+06     
      4       1.115749e+06     
      5       1.123445e+06     
      6       1.124550e+06     
 
     NUMBER OF EIGENVALUES CONVERGED UPTO THIS ITERATION = 2
 
     ITERATION 550
      1       1.115312e+06     
      2       1.115352e+06     
      3       1.115589e+06     
      4       1.115746e+06     
      5       1.123439e+06     
      6       1.124546e+06     
 
     NUMBER OF EIGENVALUES CONVERGED UPTO THIS ITERATION = 2
 
     ITERATION 551
      1       1.115312e+06     
      2       1.115351e+06     
      3       1.115588e+06     
      4       1.115742e+06     
      5       1.123434e+06     
      6       1.124542e+06     
 
     NUMBER OF EIGENVALUES CONVERGED UPTO THIS ITERATION = 3


          THE ANALYSIS HAS BEEN COMPLETED



     ANALYSIS SUMMARY:
     TOTAL OF          1  INCREMENTS
                       0  CUTBACKS IN AUTOMATIC INCREMENTATION
                       1  ITERATIONS INCLUDING CONTACT ITERATIONS IF PRESENT
                       1  PASSES THROUGH THE EQUATION SOLVER OF WHICH 
                       1  INVOLVE MATRIX DECOMPOSITION, INCLUDING
                       0  DECOMPOSITION(S) OF THE MASS MATRIX
                       1  REORDERING OF EQUATIONS TO MINIMIZE WAVEFRONT
                       0  ADDITIONAL RESIDUAL EVALUATIONS FOR LINE SEARCHES
                       0  ADDITIONAL OPERATOR EVALUATIONS FOR LINE SEARCHES
                       0  WARNING MESSAGES DURING USER INPUT PROCESSING
                       0  WARNING MESSAGES DURING ANALYSIS
                       0  ANALYSIS WARNINGS ARE NUMERICAL PROBLEM MESSAGES
                       0  ANALYSIS WARNINGS ARE NEGATIVE EIGENVALUE MESSAGES
                       0  ERROR MESSAGES



     JOB TIME SUMMARY
       USER TIME (SEC)      =     7.41E+02
       SYSTEM TIME (SEC)    =      64.    
       TOTAL CPU TIME (SEC) =     8.05E+02
       WALLCLOCK TIME (SEC) =          808
       MEMORY PEAK (GB)     =            1
