*Heading
** Job name: lp_fine Model name: Model-1
** Generated by: Abaqus/CAE 2024
*Preprint, echo=NO, model=NO, history=NO, contact=NO
**
** PARTS
**
*Part, name=excersize
*Node
      1,   249.949951,  -5.00220203,         500.
      2,    249.79982,  -10.0024014,         500.
      3,   249.549683,  -14.9985962,         500.
      4,   249.199615,  -19.9887848,         500.
      5,   248.749771,  -24.9709721,         500.
      6,   248.200333,  -29.9431591,         500.
      7,   247.551514,  -34.9033585,         500.
      8,   246.803589,  -39.8495827,         500.
      9,   245.956833,    -44.77985,         500.
     10,   245.011612,  -49.6921883,         500.
     11,   243.968277,  -54.5846291,         500.
     12,   242.827255,  -59.4552155,         500.
     13,    241.58902,   -64.302002,         500.
     14,   240.254044,  -69.1230316,         500.
     15,   238.822876,  -73.9163895,         500.
     16,   237.296082,  -78.6801529,         500.
     17,   235.674286,  -83.4124146,         500.
     18,   233.958115,  -88.1112823,         500.
     19,   232.148285,  -92.7748642,         500.
     20,   230.245499,  -97.4012985,         500.
** ... 31694 like lines cut
*Element, type=S4R
    1,   314,     1,   315,   628
    2,     1,     2,   316,   315
    3,     2,     3,   317,   316
    4,     3,     4,   318,   317
    5,     4,     5,   319,   318
    6,     5,     6,   320,   319
    7,     6,     7,   321,   320
    8,     7,     8,   322,   321
    9,     8,     9,   323,   322
   10,     9,    10,   324,   323
   11,    10,    11,   325,   324
   12,    11,    12,   326,   325
   13,    12,    13,   327,   326
   14,    13,    14,   328,   327
   15,    14,    15,   329,   328
   16,    15,    16,   330,   329
   17,    16,    17,   331,   330
   18,    17,    18,   332,   331
   19,    18,    19,   333,   332
   20,    19,    20,   334,   333
** ... 31380 like lines cut
*Nset, nset=Set-1, generate
     1,  31714,      1
*Elset, elset=Set-1, generate
     1,  31400,      1
** Section: Section-1
*Shell Section, elset=Set-1, material=alu
2., 5
*End Part
**  
**
** ASSEMBLY
**
*Assembly, name=Assembly
**  
*Instance, name=excersize-1, part=excersize
*End Instance
**  
*Node
      1,           0.,           0.,           0.
*Node
      2,           0., -1.53080843e-14,         500.
*Nset, nset=Set-5
 1,
*Nset, nset=Set-6
 2,
*Nset, nset=m_Set-1
 1,
*Nset, nset=m_Set-3
 2,
*Nset, nset=s_Set-1, instance=excersize-1, generate
 31401,  31714,      1
*Elset, elset=s_Set-1, instance=excersize-1, generate
 31087,  31400,      1
*Nset, nset=s_Set-3, instance=excersize-1, generate
   1,  314,    1
*Elset, elset=s_Set-3, instance=excersize-1, generate
   1,  314,    1
*Surface, type=NODE, name=s_Set-1_CNS_, internal
s_Set-1, 1.
*Surface, type=NODE, name=s_Set-3_CNS_, internal
s_Set-3, 1.
** Constraint: rp1
*Coupling, constraint name=rp1, ref node=m_Set-1, surface=s_Set-1_CNS_
*Kinematic
** Constraint: rp2
*Coupling, constraint name=rp2, ref node=m_Set-3, surface=s_Set-3_CNS_
*Kinematic
*End Assembly
** 
** MATERIALS
** 
*Material, name=alu
*Elastic
72000., 0.35
*Plastic
160.,  0.
340., 0.3
** 
** BOUNDARY CONDITIONS
** 
** Name: encaster Type: Displacement/Rotation
*Boundary
Set-5, 1, 1
Set-5, 2, 2
Set-5, 3, 3
Set-5, 4, 4
Set-5, 5, 5
Set-5, 6, 6
** ----------------------------------------------------------------
** 
** STEP: lin_pert
** 
*Step, name=lin_pert, nlgeom=NO, perturbation
*Buckle
3, , 6, 6500
** 
** BOUNDARY CONDITIONS
** 
** Name: encaster Type: Displacement/Rotation
*Boundary, op=NEW, load case=1
Set-5, 1, 1
Set-5, 2, 2
Set-5, 3, 3
Set-5, 4, 4
Set-5, 5, 5
Set-5, 6, 6
*Boundary, op=NEW, load case=2
Set-5, 1, 1
Set-5, 2, 2
Set-5, 3, 3
Set-5, 4, 4
Set-5, 5, 5
Set-5, 6, 6
** 
** LOADS
** 
** Name: lp   Type: Concentrated force
*Cload
Set-6, 3, -1.
** 
** OUTPUT REQUESTS
** 
*Restart, write, frequency=0
** 
** FIELD OUTPUT: F-Output-1
** 
*Output, field, variable=PRESELECT
*End Step
