*Heading
** Job name: mb_us_randomM Model name: Model-1
** Generated by: Abaqus/CAE 2024
*Preprint, echo=NO, model=NO, history=NO, contact=NO
**
** PARTS
**
*Part, name=mb_16
*Node
      1,   156.300003,  -85.5999985,         7.75
      2,   156.300003,  -66.4499969,         7.75
      3,   137.149994,  -66.4499969,         7.75
      4,   137.149994,  -85.5999985,         7.75
      5,   137.149994,      -104.75,         7.75
      6,   156.300003,      -104.75,         7.75
      7,   175.449997,  -85.5999985,         7.75
      8,   175.449997,  -66.4499969,         7.75
      9,   175.449997,      -104.75,         7.75
     10,   156.300003,      -56.875,         7.75
     11,   156.300003,  -47.2999992,         7.75
     12,         118.,  -47.2999992,         7.75
     13,         118.,  -85.5999985,         7.75
     14,   127.574997,  -85.5999985,         7.75
     15,   127.574997,      -56.875,         7.75
     16,   185.024994,  -85.5999985,         7.75
     17,   194.600006,  -85.5999985,         7.75
     18,   194.600006,  -47.2999992,         7.75
     19,   185.024994,      -56.875,         7.75
     20,   156.300003,  -123.900002,         7.75
** ... 5209 like lines cut
*Element, type=S4R
 1,   1,  30, 468,  45
 2,  30,  31, 469, 468
 3,  31,  32, 470, 469
 4,  32,  33, 471, 470
 5,  33,   2,  34, 471
 6,  45, 468, 472,  44
 7, 468, 469, 473, 472
 8, 469, 470, 474, 473
 9, 470, 471, 475, 474
10, 471,  34,  35, 475
11,  44, 472, 476,  43
12, 472, 473, 477, 476
13, 473, 474, 478, 477
14, 474, 475, 479, 478
15, 475,  35,  36, 479
16,  43, 476, 480,  42
17, 476, 477, 481, 480
18, 477, 478, 482, 481
19, 478, 479, 483, 482
20, 479,  36,  37, 483
** ... 5000 like lines cut
*Element, type=S3
101, 550, 561, 546
102, 559, 537,  97
103, 548, 547, 539
104, 562, 557,  15
200, 2733, 1323, 2538
201, 4816, 3562, 3740
202, 3913, 3856, 3692
203, 4297, 5005, 4424
204, 2959, 2692, 2779
205, 4036, 3355, 3752
206, 5050, 4304, 4243
207, 4351, 4309, 4326
208, 2422, 1184, 2554
209, 3142, 4753, 4752
210, 4309, 4226,  652
211, 4958, 3731, 4393
212, 4794, 2583, 2694
213, 4217, 4285,  767
214, 2573, 2456,  895
215, 4013, 4055, 3962
** ... 130 like lines cut
*Nset, nset=Set-1, generate
    1,  5229,     1
*Elset, elset=Set-1, generate
    1,  5170,     1
** Section: mb_sec
*Shell Section, elset=Set-1, material=mb_alu
15.5, 5
*End Part
**  
**
** ASSEMBLY
**
*Assembly, name=Assembly
**  
*Instance, name=mb_16-1, part=mb_16
*End Instance
**  
*Node
      1,      165.875,  -66.4499969,         7.75
*Node
      2,   137.149994,  -95.1750031,         7.75
*Node
      3,   170.662506,  -114.324997,         7.75
*Nset, nset=Set-1, instance=mb_16-1, generate
 23,  26,   1
*Nset, nset=Set-2, instance=mb_16-1, generate
 23,  26,   1
*Nset, nset=Set-3, generate
 1,  3,  1
*Nset, nset=Set-4, generate
 1,  3,  1
*Nset, nset=Set-11, instance=mb_16-1
  5,  7, 15
*Nset, nset=b_Set-10, instance=mb_16-1
   1,   4,   5,   6,  42,  43,  44,  45,  46,  47,  48,  49,  50,  51,  52,  53
  54,  55,  56,  57, 484, 485, 486, 487, 488, 489, 490, 491, 492, 493, 494, 495
 496, 497, 498, 499
*Elset, elset=b_Set-10, instance=mb_16-1, generate
 26,  50,   1
*Nset, nset=m_Set-5, generate
 1,  3,  1
*Nset, nset=m_Set-6
 3,
*Nset, nset=m_Set-8, generate
 1,  3,  1
*Nset, nset=s_Set-6, instance=mb_16-1
  27,  29, 461, 462, 463, 464, 465, 466
*Elset, elset=s_Set-6, instance=mb_16-1
 5061, 5075, 5089, 5094, 5095, 5096, 5097, 5135, 5141, 5146, 5148, 5150, 5167, 5168
*Nset, nset=s_Set-8, instance=mb_16-1
   2,   4,   5,   8,  27,  29,  46,  47,  48,  49,  62,  63,  64,  65, 461, 462
 463, 464, 465, 466
*Elset, elset=s_Set-8, instance=mb_16-1
   30,   35,   40,   45,   50,   55,   60,   65,   70,   75, 5019, 5027, 5028, 5030, 5031, 5061
 5075, 5089, 5094, 5095, 5096, 5097, 5109, 5114, 5123, 5124, 5126, 5135, 5141, 5146, 5148, 5150
 5167, 5168
*Elset, elset=_Surf-1_SPOS, internal, instance=mb_16-1
    1,    2,    3,    4,    5,    6,    7,    8,    9,   10,   11,   12,   13,   14,   15,   16
   17,   18,   19,   20,   21,   22,   23,   24,   25,   26,   27,   28,   29,   30,   31,   32
   33,   34,   35,   36,   37,   38,   39,   40,   41,   42,   43,   44,   45,   46,   47,   48
   49,   50,   51,   52,   53,   54,   55,   56,   57,   58,   59,   60,   61,   62,   63,   64
   65,   66,   67,   68,   69,   70,   71,   72,   73,   74,   75,   76,   77,   78,   79,   80
   81,   82,   83,   84,   85,   86,   87,   88,   89,   90,   91,   92,   93,   94,   95,   96
   97,   98,   99,  100,  101,  102,  103,  104,  105,  106,  107,  108,  109,  110,  111,  112
  113,  114,  115,  116,  117,  118,  119,  120,  121,  122,  123,  124,  125,  126,  127,  128
  129,  130,  131,  132,  133,  134,  135,  136,  137,  138,  139,  140,  141,  142,  143,  144
  145,  146,  147,  148,  149,  150,  151,  152,  153,  154,  155,  156,  157,  158,  159,  160
  161,  162,  163,  164,  165,  166,  167,  168,  169,  170,  171,  172,  173,  174,  175,  176
  177,  178,  179,  180,  181,  182,  183,  184,  185,  186,  187,  188,  189,  190,  191,  192
  193,  194,  195,  196,  197,  198,  199, 4927, 4928, 4929, 4930, 4931, 4932, 4933, 4934, 4935
 4936, 4937, 4938, 4939, 4940, 4941, 4942, 4943, 4944, 4945, 4946, 4947, 4948, 4949, 4950, 4951
 4952, 4953, 4954, 4955, 4956, 4957, 4958, 4959, 4960, 4961, 4962, 4963, 4964, 4965, 4966, 4967
 4968, 4969, 4970, 4971, 4972, 4973, 4974, 4975, 4976, 4977, 4978, 4979, 4980, 4981, 4982, 4983
 4984, 4985, 4986, 4987, 4988, 4989, 4990, 4991, 4992, 4993, 4994, 4995, 4996, 4997, 4998, 4999
 5000, 5001, 5002, 5003, 5004, 5005, 5006, 5007, 5008, 5009, 5010, 5011, 5012, 5013, 5014, 5015
 5016, 5017, 5018, 5019, 5020, 5021, 5022, 5023, 5024, 5025, 5026, 5027, 5028, 5029, 5030, 5031
 5032, 5033, 5034, 5035, 5036, 5037, 5038, 5039, 5040, 5041, 5042, 5043, 5044, 5045, 5046, 5047
** ... 8 like lines cut
*Surface, type=ELEMENT, name=Surf-1
_Surf-1_SPOS, SPOS
*End Assembly
** 
** MATERIALS
** 
*Material, name=mb_alu
*Elastic
72000., 0.333
** 
** BOUNDARY CONDITIONS
** 
** Name: fixed_BC Type: Displacement/Rotation
*Boundary
Set-2, 1, 1
Set-2, 2, 2
Set-2, 3, 3
Set-2, 4, 4
Set-2, 5, 5
Set-2, 6, 6
** ----------------------------------------------------------------
** 
** STEP: uniform_load
** 
*Step, name=uniform_load, nlgeom=NO, perturbation
*Static
** 
** LOADS
** 
** Name: uniformed_load   Type: Pressure
*Dsload
Surf-1, P, 0.0001
** 
** OUTPUT REQUESTS
** 
** 
** FIELD OUTPUT: F-Output-1
** 
*Output, field
*Node Output
CF, RF, U
*Element Output, directions=YES
LE, S, SF
** 
** HISTORY OUTPUT: H-Output-1
** 
*Output, history, variable=PRESELECT
*End Step
** ----------------------------------------------------------------
** 
** STEP: seveal_load
** 
*Step, name=seveal_load, nlgeom=NO, perturbation
*Static
** 
** LOADS
** 
** Name: concentrated_force   Type: Concentrated force
*Cload
Set-11, 3, -0.0005
** 
** OUTPUT REQUESTS
** 
** 
** FIELD OUTPUT: F-Output-1
** 
*Output, field
*Node Output
CF, RF, U
*Element Output, directions=YES
LE, S, SF
** 
** HISTORY OUTPUT: H-Output-1
** 
*Output, history, variable=PRESELECT
*End Step
