*Heading
** Job name: simple_test2 Model name: Model-1
** Generated by: Abaqus/CAE 2024
*Preprint, echo=NO, model=NO, history=NO, contact=NO
**
** PARTS
**
*Part, name=Part-1
*Node
      1,           0.,   221.199997,         7.75
      2,           0.,   216.172729,         7.75
      3,           0.,   211.145462,         7.75
      4,           0.,   206.118179,         7.75
      5,           0.,   201.090912,         7.75
      6,           0.,   196.063629,         7.75
      7,           0.,   191.036362,         7.75
      8,           0.,   186.009094,         7.75
      9,           0.,   180.981812,         7.75
     10,           0.,   175.954544,         7.75
     11,           0.,   170.927277,         7.75
     12,           0.,   165.899994,         7.75
     13,           0.,   160.872726,         7.75
     14,           0.,   155.845459,         7.75
     15,           0.,   150.818176,         7.75
     16,           0.,   145.790909,         7.75
     17,           0.,   140.763641,         7.75
     18,           0.,   135.736359,         7.75
     19,           0.,   130.709091,         7.75
     20,           0.,   125.681816,         7.75
** ... 2860 like lines cut
*Element, type=S4R
   1,    1,    2,   47,   46
   2,    2,    3,   48,   47
   3,    3,    4,   49,   48
   4,    4,    5,   50,   49
   5,    5,    6,   51,   50
   6,    6,    7,   52,   51
   7,    7,    8,   53,   52
   8,    8,    9,   54,   53
   9,    9,   10,   55,   54
  10,   10,   11,   56,   55
  11,   11,   12,   57,   56
  12,   12,   13,   58,   57
  13,   13,   14,   59,   58
  14,   14,   15,   60,   59
  15,   15,   16,   61,   60
  16,   16,   17,   62,   61
  17,   17,   18,   63,   62
  18,   18,   19,   64,   63
  19,   19,   20,   65,   64
  20,   20,   21,   66,   65
** ... 2752 like lines cut
*Nset, nset=Set-1, generate
    1,  2880,     1
*Elset, elset=Set-1, generate
    1,  2772,     1
*Nset, nset=points_load
  694,  958, 1413, 1433, 1902, 2132
** Section: mb_section
*Shell Section, elset=Set-1, material=apple_alu
15.5, 5
*End Part
**  
**
** ASSEMBLY
**
*Assembly, name=Assembly
**  
*Instance, name=Part-1-1, part=Part-1
*End Instance
**  
*Nset, nset=Set-1, instance=Part-1-1
    1,   45, 2836, 2880
*Nset, nset=Set-3, instance=Part-1-1
    1,    2,    3,    4,    5,    6,    7,    8,    9,   10,   11,   12,   13,   14,   15,   16
   17,   18,   19,   20,   21,   22,   23,   24,   25,   26,   27,   28,   29,   30,   31,   32
   33,   34,   35,   36,   37,   38,   39,   40,   41,   42,   43,   44,   45,   46,   90,   91
  135,  136,  180,  181,  225,  226,  270,  271,  315,  316,  360,  361,  405,  406,  450,  451
  495,  496,  540,  541,  585,  586,  630,  631,  675,  676,  720,  721,  765,  766,  810,  811
  855,  856,  900,  901,  945,  946,  990,  991, 1035, 1036, 1080, 1081, 1125, 1126, 1170, 1171
 1215, 1216, 1260, 1261, 1305, 1306, 1350, 1351, 1395, 1396, 1440, 1441, 1485, 1486, 1530, 1531
 1575, 1576, 1620, 1621, 1665, 1666, 1710, 1711, 1755, 1756, 1800, 1801, 1845, 1846, 1890, 1891
 1935, 1936, 1980, 1981, 2025, 2026, 2070, 2071, 2115, 2116, 2160, 2161, 2205, 2206, 2250, 2251
 2295, 2296, 2340, 2341, 2385, 2386, 2430, 2431, 2475, 2476, 2520, 2521, 2565, 2566, 2610, 2611
 2655, 2656, 2700, 2701, 2745, 2746, 2790, 2791, 2835, 2836, 2837, 2838, 2839, 2840, 2841, 2842
 2843, 2844, 2845, 2846, 2847, 2848, 2849, 2850, 2851, 2852, 2853, 2854, 2855, 2856, 2857, 2858
 2859, 2860, 2861, 2862, 2863, 2864, 2865, 2866, 2867, 2868, 2869, 2870, 2871, 2872, 2873, 2874
 2875, 2876, 2877, 2878, 2879, 2880
*Elset, elset=Set-3, instance=Part-1-1
    1,    2,    3,    4,    5,    6,    7,    8,    9,   10,   11,   12,   13,   14,   15,   16
   17,   18,   19,   20,   21,   22,   23,   24,   25,   26,   27,   28,   29,   30,   31,   32
   33,   34,   35,   36,   37,   38,   39,   40,   41,   42,   43,   44,   45,   88,   89,  132
  133,  176,  177,  220,  221,  264,  265,  308,  309,  352,  353,  396,  397,  440,  441,  484
  485,  528,  529,  572,  573,  616,  617,  660,  661,  704,  705,  748,  749,  792,  793,  836
  837,  880,  881,  924,  925,  968,  969, 1012, 1013, 1056, 1057, 1100, 1101, 1144, 1145, 1188
 1189, 1232, 1233, 1276, 1277, 1320, 1321, 1364, 1365, 1408, 1409, 1452, 1453, 1496, 1497, 1540
 1541, 1584, 1585, 1628, 1629, 1672, 1673, 1716, 1717, 1760, 1761, 1804, 1805, 1848, 1849, 1892
 1893, 1936, 1937, 1980, 1981, 2024, 2025, 2068, 2069, 2112, 2113, 2156, 2157, 2200, 2201, 2244
 2245, 2288, 2289, 2332, 2333, 2376, 2377, 2420, 2421, 2464, 2465, 2508, 2509, 2552, 2553, 2596
 2597, 2640, 2641, 2684, 2685, 2728, 2729, 2730, 2731, 2732, 2733, 2734, 2735, 2736, 2737, 2738
 2739, 2740, 2741, 2742, 2743, 2744, 2745, 2746, 2747, 2748, 2749, 2750, 2751, 2752, 2753, 2754
 2755, 2756, 2757, 2758, 2759, 2760, 2761, 2762, 2763, 2764, 2765, 2766, 2767, 2768, 2769, 2770
 2771, 2772
*Nset, nset=Set-4, instance=Part-1-1
    1,    2,    3,    4,    5,    6,    7,    8,    9,   10,   11,   12,   13,   14,   15,   16
   17,   18,   19,   20,   21,   22,   23,   24,   25,   26,   27,   28,   29,   30,   31,   32
   33,   34,   35,   36,   37,   38,   39,   40,   41,   42,   43,   44,   45,   46,   90,   91
  135,  136,  180,  181,  225,  226,  270,  271,  315,  316,  360,  361,  405,  406,  450,  451
  495,  496,  540,  541,  585,  586,  630,  631,  675,  676,  720,  721,  765,  766,  810,  811
  855,  856,  900,  901,  945,  946,  990,  991, 1035, 1036, 1080, 1081, 1125, 1126, 1170, 1171
 1215, 1216, 1260, 1261, 1305, 1306, 1350, 1351, 1395, 1396, 1440, 1441, 1485, 1486, 1530, 1531
 1575, 1576, 1620, 1621, 1665, 1666, 1710, 1711, 1755, 1756, 1800, 1801, 1845, 1846, 1890, 1891
 1935, 1936, 1980, 1981, 2025, 2026, 2070, 2071, 2115, 2116, 2160, 2161, 2205, 2206, 2250, 2251
 2295, 2296, 2340, 2341, 2385, 2386, 2430, 2431, 2475, 2476, 2520, 2521, 2565, 2566, 2610, 2611
 2655, 2656, 2700, 2701, 2745, 2746, 2790, 2791, 2835, 2836, 2837, 2838, 2839, 2840, 2841, 2842
 2843, 2844, 2845, 2846, 2847, 2848, 2849, 2850, 2851, 2852, 2853, 2854, 2855, 2856, 2857, 2858
 2859, 2860, 2861, 2862, 2863, 2864, 2865, 2866, 2867, 2868, 2869, 2870, 2871, 2872, 2873, 2874
 2875, 2876, 2877, 2878, 2879, 2880
*Elset, elset=Set-4, instance=Part-1-1
    1,    2,    3,    4,    5,    6,    7,    8,    9,   10,   11,   12,   13,   14,   15,   16
   17,   18,   19,   20,   21,   22,   23,   24,   25,   26,   27,   28,   29,   30,   31,   32
   33,   34,   35,   36,   37,   38,   39,   40,   41,   42,   43,   44,   45,   88,   89,  132
  133,  176,  177,  220,  221,  264,  265,  308,  309,  352,  353,  396,  397,  440,  441,  484
  485,  528,  529,  572,  573,  616,  617,  660,  661,  704,  705,  748,  749,  792,  793,  836
  837,  880,  881,  924,  925,  968,  969, 1012, 1013, 1056, 1057, 1100, 1101, 1144, 1145, 1188
 1189, 1232, 1233, 1276, 1277, 1320, 1321, 1364, 1365, 1408, 1409, 1452, 1453, 1496, 1497, 1540
 1541, 1584, 1585, 1628, 1629, 1672, 1673, 1716, 1717, 1760, 1761, 1804, 1805, 1848, 1849, 1892
 1893, 1936, 1937, 1980, 1981, 2024, 2025, 2068, 2069, 2112, 2113, 2156, 2157, 2200, 2201, 2244
 2245, 2288, 2289, 2332, 2333, 2376, 2377, 2420, 2421, 2464, 2465, 2508, 2509, 2552, 2553, 2596
 2597, 2640, 2641, 2684, 2685, 2728, 2729, 2730, 2731, 2732, 2733, 2734, 2735, 2736, 2737, 2738
 2739, 2740, 2741, 2742, 2743, 2744, 2745, 2746, 2747, 2748, 2749, 2750, 2751, 2752, 2753, 2754
 2755, 2756, 2757, 2758, 2759, 2760, 2761, 2762, 2763, 2764, 2765, 2766, 2767, 2768, 2769, 2770
 2771, 2772
*Nset, nset=points_assembly, instance=Part-1-1
  840,  916, 1374, 1967, 2217
*Elset, elset=_Surf-1_SPOS, internal, instance=Part-1-1, generate
    1,  2772,     1
*Surface, type=ELEMENT, name=Surf-1
_Surf-1_SPOS, SPOS
*Elset, elset=_Surf-2_SPOS, internal, instance=Part-1-1, generate
    1,  2772,     1
*Surface, type=ELEMENT, name=Surf-2
_Surf-2_SPOS, SPOS
*End Assembly
** 
** MATERIALS
** 
*Material, name=apple_alu
*Elastic
72000., 0.333
** 
** BOUNDARY CONDITIONS
** 
** Name: fixed Type: Displacement/Rotation
*Boundary
Set-1, 1, 1
Set-1, 2, 2
Set-1, 3, 3
Set-1, 4, 4
Set-1, 5, 5
Set-1, 6, 6
** ----------------------------------------------------------------
** 
** STEP: simple_test
** 
*Step, name=simple_test, nlgeom=NO, perturbation
*Static
** 
** BOUNDARY CONDITIONS
** 
** Name: fixed Type: Displacement/Rotation
*Boundary, op=NEW
** Name: simple_test_BC Type: Displacement/Rotation
*Boundary, op=NEW
Set-4, 1, 1
Set-4, 2, 2
Set-4, 3, 3
** 
** LOADS
** 
** Name: q   Type: Pressure
*Dsload, op=NEW
Surf-2, P, 2.
** 
** OUTPUT REQUESTS
** 
** 
** FIELD OUTPUT: F-Output-1
** 
*Output, field
*Node Output
CF, RF, U
*Element Output, directions=YES
LE, S, SF
** 
** HISTORY OUTPUT: H-Output-1
** 
*Output, history, variable=PRESELECT
*End Step
** ----------------------------------------------------------------
** 
** STEP: clamped_edges
** 
*Step, name=clamped_edges, nlgeom=NO, perturbation
*Static
** 
** BOUNDARY CONDITIONS
** 
** Name: clamped_edges Type: Displacement/Rotation
*Boundary, op=NEW
Set-3, 1, 1
Set-3, 2, 2
Set-3, 3, 3
Set-3, 4, 4
Set-3, 5, 5
Set-3, 6, 6
** Name: fixed Type: Displacement/Rotation
*Boundary, op=NEW
** 
** LOADS
** 
** Name: uniformed_load-Copy   Type: Pressure
*Dsload, op=NEW
Surf-1, P, 1.44619e-05
** 
** OUTPUT REQUESTS
** 
** 
** FIELD OUTPUT: F-Output-1
** 
*Output, field
*Node Output
CF, RF, U
*Element Output, directions=YES
LE, S, SF
** 
** HISTORY OUTPUT: H-Output-1
** 
*Output, history, variable=PRESELECT
*End Step
** ----------------------------------------------------------------
** 
** STEP: points_load
** 
*Step, name=points_load, nlgeom=NO, perturbation
*Static
** 
** LOADS
** 
** Name: points_loads   Type: Concentrated force
*Cload
points_assembly, 3, -0.0005
** 
** OUTPUT REQUESTS
** 
** 
** FIELD OUTPUT: F-Output-1
** 
*Output, field
*Node Output
CF, RF, U
*Element Output, directions=YES
LE, S, SF
** 
** HISTORY OUTPUT: H-Output-1
** 
*Output, history, variable=PRESELECT
*End Step
** ----------------------------------------------------------------
** 
** STEP: uniformed_load
** 
*Step, name=uniformed_load, nlgeom=NO, perturbation
*Static
** 
** LOADS
** 
** Name: uniformed_load   Type: Pressure
*Dsload, op=NEW
Surf-1, P, 1.44619e-05
** 
** OUTPUT REQUESTS
** 
** 
** FIELD OUTPUT: F-Output-1
** 
*Output, field
*Node Output
CF, RF, U
*Element Output, directions=YES
LE, S, SF
** 
** HISTORY OUTPUT: H-Output-1
** 
*Output, history, variable=PRESELECT
*End Step
