 Abaqus/Standard 2024                  DATE 24-feb-2024 TIME 15:45:17
 SUMMARY OF JOB INFORMATION:
 STEP  INC ATT SEVERE EQUIL TOTAL  TOTAL      STEP       INC OF       DOF    IF
               DISCON ITERS ITERS  TIME/    TIME/LPF    TIME/LPF    MONITOR RIKS
               ITERS               FREQ
   1     1   1     0     1     1  0.00       2.22e-16   2.220e-16 
   2     1   1     0     1     1  0.00       2.22e-16   2.220e-16 
   3     1   1     0     1     1  0.00       2.22e-16   2.220e-16 
   4     1   1     0     1     1  0.00       2.22e-16   2.220e-16 
                          
 THE ANALYSIS HAS COMPLETED SUCCESSFULLY
