*Heading
** Job name: Deform Model name: Rooftop
** Generated by: Abaqus/CAE 2022
*Preprint, echo=NO, model=NO, history=NO, contact=NO
**
** PARTS
**
*Part, name=Rooftop
*Node
      1,       -4000.,       -4000.,           0.
      2,      -12000.,       -4000.,           0.
      3,      -12000.,      -12000.,           0.
      4,       -4000.,      -12000.,           0.
      5,       -4000.,        4000.,           0.
      6,       -4000.,       12000.,           0.
      7,      -12000.,       12000.,           0.
      8,      -12000.,        4000.,           0.
      9,        4000.,       -4000.,           0.
     10,        4000.,      -12000.,           0.
     11,       12000.,      -12000.,           0.
     12,       12000.,       -4000.,           0.
     13,        4000.,       12000.,           0.
     14,        4000.,        4000.,           0.
     15,       12000.,        4000.,           0.
     16,       12000.,       12000.,           0.
     17,       -4800.,       -4000.,           0.
     18,       -5600.,       -4000.,           0.
     19,       -6400.,       -4000.,           0.
     20,       -7200.,       -4000.,           0.
** ... 941 like lines cut
*Element, type=S4
  1,   1,  17, 233,  52
  2,  17,  18, 234, 233
  3,  18,  19, 235, 234
  4,  19,  20, 236, 235
  5,  20,  21, 237, 236
  6,  21,  22, 238, 237
  7,  22,  23, 239, 238
  8,  23,  24, 240, 239
  9,  24,  25, 241, 240
 10,  25,   2,  26, 241
 11,  52, 233, 242,  51
 12, 233, 234, 243, 242
 13, 234, 235, 244, 243
 14, 235, 236, 245, 244
 15, 236, 237, 246, 245
 16, 237, 238, 247, 246
 17, 238, 239, 248, 247
 18, 239, 240, 249, 248
 19, 240, 241, 250, 249
 20, 241,  26,  27, 250
** ... 880 like lines cut
*Nset, nset=Slab, generate
   1,  961,    1
*Elset, elset=Slab, generate
   1,  900,    1
** Section: Slab
*Shell Section, elset=Slab, material=Concrete
250., 5
*End Part
**  
**
** ASSEMBLY
**
*Assembly, name=Assembly
**  
*Instance, name=Rooftop-1, part=Rooftop
*End Instance
**  
*Nset, nset=Columns_point, instance=Rooftop-1, generate
  1,  16,   1
*Elset, elset=_Load_SPOS, internal, instance=Rooftop-1, generate
 801,  900,    1
*Surface, type=ELEMENT, name=Load
_Load_SPOS, SPOS
*End Assembly
** 
** MATERIALS
** 
*Material, name=Concrete
*Elastic
32000., 0.2
** ----------------------------------------------------------------
** 
** STEP: Load
** 
*Step, name=Load, nlgeom=NO
*Static
0.1, 1., 1e-05, 1.
** 
** BOUNDARY CONDITIONS
** 
** Name: Column_support Type: Displacement/Rotation
*Boundary
Columns_point, 3, 3
** 
** LOADS
** 
** Name: UniformPressure   Type: Pressure
*Dsload
Load, P, 0.01
** 
** OUTPUT REQUESTS
** 
*Restart, write, frequency=0
** 
** FIELD OUTPUT: F-Output-1
** 
*Output, field
*Node Output, variable=PRESELECT
*Element Output, directions=YES, variable=PRESELECT
1, 2, 3, 4, 5
** 
** HISTORY OUTPUT: H-Output-1
** 
*Output, history, variable=PRESELECT
*End Step
