1

   Abaqus 2024                                  Date 26-feb-2024   Time 17:10:59
   For use by POLITECNICO DI MILANO under license from Dassault Systemes or its subsidiary.

                                                                                 
                                                                                 
 STEP    1     INCREMENT     1     STEP TIME    0.00    


                        S T E P       1     S T A T I C   A N A L Y S I S


                                                                                          

     AUTOMATIC TIME CONTROL WITH -
          A SUGGESTED INITIAL TIME INCREMENT OF                1.000E-02
          AND A TOTAL TIME PERIOD OF                            1.00    
          THE MINIMUM TIME INCREMENT ALLOWED IS                1.000E-05
          THE MAXIMUM TIME INCREMENT ALLOWED IS                1.000E-02

     LINEAR EQUATION SOLVER TYPE         DIRECT SPARSE

 CONVERGENCE TOLERANCE PARAMETERS FOR FORCE    
     CRITERION FOR RESIDUAL FORCE     FOR A NONLINEAR PROBLEM          5.000E-03
     CRITERION FOR DISP.    CORRECTION IN A NONLINEAR PROBLEM          1.000E-02
     INITIAL VALUE OF TIME AVERAGE FORCE                               1.000E-02
     AVERAGE FORCE     IS TIME AVERAGE FORCE    
     ALTERNATE CRIT. FOR RESIDUAL FORCE     FOR A NONLINEAR PROBLEM    2.000E-02
     CRITERION FOR ZERO FORCE     RELATIVE TO TIME AVRG. FORCE         1.000E-05
     CRITERION FOR RESIDUAL FORCE     WHEN THERE IS ZERO FLUX          1.000E-05
     CRITERION FOR DISP.    CORRECTION WHEN THERE IS ZERO FLUX         1.000E-03
     CRITERION FOR RESIDUAL FORCE     FOR A LINEAR INCREMENT           1.000E-08
     FIELD CONVERSION RATIO                                             1.00    
     CRITERION FOR ZERO FORCE     REL. TO TIME AVRG. MAX. FORCE        1.000E-05
     CRITERION FOR ZERO DISP.    RELATIVE TO CHARACTERISTIC LENGTH     1.000E-08

 CONVERGENCE TOLERANCE PARAMETERS FOR MOMENT   
     CRITERION FOR RESIDUAL MOMENT    FOR A NONLINEAR PROBLEM          5.000E-03
     CRITERION FOR ROTATION CORRECTION IN A NONLINEAR PROBLEM          1.000E-02
     INITIAL VALUE OF TIME AVERAGE MOMENT                              1.000E-02
     AVERAGE MOMENT    IS TIME AVERAGE MOMENT   
     ALTERNATE CRIT. FOR RESIDUAL MOMENT    FOR A NONLINEAR PROBLEM    2.000E-02
     CRITERION FOR ZERO MOMENT    RELATIVE TO TIME AVRG. MOMENT        1.000E-05
     CRITERION FOR RESIDUAL MOMENT    WHEN THERE IS ZERO FLUX          1.000E-05
     CRITERION FOR ROTATION CORRECTION WHEN THERE IS ZERO FLUX         1.000E-03
     CRITERION FOR RESIDUAL MOMENT    FOR A LINEAR INCREMENT           1.000E-08
     FIELD CONVERSION RATIO                                             1.00    
     CRITERION FOR ZERO MOMENT    REL. TO TIME AVRG. MAX. MOMENT       1.000E-05

     VOLUMETRIC STRAIN COMPATIBILITY TOLERANCE FOR HYBRID SOLIDS       1.000E-05
     AXIAL STRAIN COMPATIBILITY TOLERANCE FOR HYBRID BEAMS             1.000E-05
     TRANS. SHEAR STRAIN COMPATIBILITY TOLERANCE FOR HYBRID BEAMS      1.000E-05
     SOFT CONTACT CONSTRAINT COMPATIBILITY TOLERANCE FOR P>P0          5.000E-03
     SOFT CONTACT CONSTRAINT COMPATIBILITY TOLERANCE FOR P=0.0         0.100    
     CONTACT FORCE ERROR TOLERANCE FOR CONVERT SDI=YES                 1.00    
     DISPLACEMENT COMPATIBILITY TOLERANCE FOR DCOUP ELEMENTS           1.000E-05
     ROTATION COMPATIBILITY TOLERANCE FOR DCOUP ELEMENTS               1.000E-05

 EQUILIBRIUM WILL BE CHECKED FOR SEVERE DISCONTINUITY ITERATIONS

 TIME INCREMENTATION CONTROL PARAMETERS:
     FIRST EQUILIBRIUM ITERATION FOR CONSECUTIVE DIVERGENCE CHECK              4
     EQUILIBRIUM ITERATION AT WHICH LOG. CONVERGENCE RATE CHECK BEGINS         8
     EQUILIBRIUM ITERATION AFTER WHICH ALTERNATE RESIDUAL IS USED              9
     MAXIMUM EQUILIBRIUM ITERATIONS ALLOWED                                   16
     EQUILIBRIUM ITERATION COUNT FOR CUT-BACK IN NEXT INCREMENT               10
     MAXIMUM EQUILIB. ITERS IN TWO INCREMENTS FOR TIME INCREMENT INCREASE      4
     MAXIMUM ITERATIONS FOR SEVERE DISCONTINUITIES                            50
     MAXIMUM ATTEMPTS ALLOWED IN AN INCREMENT                                  5
     MAXIMUM DISCON. ITERS IN TWO INCREMENTS FOR TIME INCREMENT INCREASE      50
     MAXIMUM CONTACT AUGMENTATIONS FOR *SURFACE BEHAVIOR,AUGMENTED LAGRANGE   50
     CUT-BACK FACTOR AFTER DIVERGENCE                                 0.2500    
     CUT-BACK FACTOR FOR TOO SLOW CONVERGENCE                         0.5000    
     CUT-BACK FACTOR AFTER TOO MANY EQUILIBRIUM ITERATIONS            0.7500    
     CUT-BACK FACTOR AFTER TOO MANY SEVERE DISCONTINUITY ITERATIONS   0.2500    
     CUT-BACK FACTOR AFTER PROBLEMS IN ELEMENT ASSEMBLY               0.2500    
     INCREASE FACTOR AFTER TWO INCREMENTS THAT CONVERGE QUICKLY        1.500    
     MAX. TIME INCREMENT INCREASE FACTOR ALLOWED                       1.500    
     MAX. TIME INCREMENT INCREASE FACTOR ALLOWED (DYNAMICS)            1.250    
     MAX. TIME INCREMENT INCREASE FACTOR ALLOWED (DIFFUSION)           2.000    
     MINIMUM TIME INCREMENT RATIO FOR EXTRAPOLATION TO OCCUR          0.1000    
     MAX. RATIO OF TIME INCREMENT TO STABILITY LIMIT                   1.000    
     FRACTION OF STABILITY LIMIT FOR NEW TIME INCREMENT               0.9500    
     TIME INCREMENT INCREASE FACTOR BEFORE A TIME POINT                1.000    
     GLOBAL STABILIZATION CONTROL IS NOT USED

          PRINT OF INCREMENT NUMBER, TIME, ETC., EVERY    1  INCREMENTS

     THE MAXIMUM NUMBER OF INCREMENTS IN THIS STEP IS                     200

     LINEAR EXTRAPOLATION WILL BE USED

     CHARACTERISTIC ELEMENT LENGTH      8.34    

     DETAILS REGARDING ACTUAL SOLUTION WAVEFRONT REQUESTED

     DETAILED OUTPUT OF DIAGNOSTICS TO DATABASE REQUESTED

     PRINT OF INCREMENT NUMBER, TIME, ETC., TO THE MESSAGE FILE EVERY     1  INCREMENTS

     ELEMENT OPERATIONS WILL BE CARRIED OUT IN PARALLEL USING   4 THREADS ON 1 DOMAIN

     PARALLEL CONTACT TRACKING ENABLED


     COLLECTING MODEL CONSTRAINT INFORMATION FOR OVERCONSTRAINT CHECKS

     COLLECTING STEP CONSTRAINT INFORMATION FOR OVERCONSTRAINT CHECKS


  INCREMENT     1 STARTS. ATTEMPT NUMBER  1, TIME INCREMENT  1.000E-02
 
     INITIAL ELEMENT LOAD BALANCE
            DOMAIN    1     THREAD    NUMBER OF ELEMENTS
                              1            248
                              2            248
                              3            224
                              4            296
 
	SYMMETRIC NEW DIRECT SPARSE SOLVER RUNNING ON
 	1 HOST x 1 MPI RANK PER HOST x 4 THREADS PER RANK
        NUMBER OF EQUATIONS:  6342
        NUMBER OF RHS:        1
        NUMBER OF FLOPS:      1.258e+08
        SOLVER ELAPSED TIME:  110ms

               CONVERGENCE CHECKS FOR EQUILIBRIUM ITERATION     1


 AVERAGE FORCE                      0.218       TIME AVG. FORCE       0.218    
 LARGEST SCALED RESIDUAL FORCE      3.736E-12   AT NODE        307   DOF  3
   INSTANCE: PART-1-1                                                                        
  CORRESPONDING RESIDUAL FORCE      3.736E-12
 LARGEST INCREMENT OF DISP.        -9.949E-03   AT NODE        919   DOF  3
   INSTANCE: PART-1-1                                                                        
 LARGEST CORRECTION TO DISP.       -9.949E-03   AT NODE        919   DOF  3
   INSTANCE: PART-1-1                                                                        
          THE FORCE     EQUILIBRIUM RESPONSE WAS LINEAR IN THIS INCREMENT

 AVERAGE MOMENT                      57.7       TIME AVG. MOMENT       57.7    
 LARGEST SCALED RESIDUAL MOMENT     9.095E-12   AT NODE        642   DOF  5
   INSTANCE: PART-1-1                                                                        
  CORRESPONDING RESIDUAL MOMENT     9.095E-12
 LARGEST INCREMENT OF ROTATION      1.141E-04   AT NODE        422   DOF  5
   INSTANCE: PART-1-1                                                                        
 LARGEST CORRECTION TO ROTATION     1.141E-04   AT NODE        422   DOF  5
   INSTANCE: PART-1-1                                                                        
          THE MOMENT    EQUILIBRIUM RESPONSE WAS LINEAR IN THIS INCREMENT

 ITERATION SUMMARY FOR THE INCREMENT:   1 TOTAL ITERATIONS, OF WHICH
   0 ARE SEVERE DISCONTINUITY ITERATIONS AND  1 ARE EQUILIBRIUM ITERATIONS.

 TIME INCREMENT COMPLETED  1.000E-02,  FRACTION OF STEP COMPLETED  1.000E-02
 STEP TIME COMPLETED       1.000E-02,  TOTAL TIME COMPLETED        1.000E-02


  INCREMENT     2 STARTS. ATTEMPT NUMBER  1, TIME INCREMENT  1.000E-02
 
	SYMMETRIC NEW DIRECT SPARSE SOLVER RUNNING ON
 	1 HOST x 1 MPI RANK PER HOST x 4 THREADS PER RANK
        NUMBER OF EQUATIONS:  6342
        NUMBER OF RHS:        1
        NUMBER OF FLOPS:      1.258e+08
        SOLVER ELAPSED TIME:  45ms

               CONVERGENCE CHECKS FOR EQUILIBRIUM ITERATION     1


 AVERAGE FORCE                       2.36       TIME AVG. FORCE        1.29    
 LARGEST SCALED RESIDUAL FORCE     -5.691E-12   AT NODE       1014   DOF  3
   INSTANCE: PART-1-1                                                                        
  CORRESPONDING RESIDUAL FORCE     -5.691E-12
 LARGEST INCREMENT OF DISP.        -9.949E-03   AT NODE        919   DOF  3
   INSTANCE: PART-1-1                                                                        
 LARGEST CORRECTION TO DISP.       -6.752E-16   AT NODE        747   DOF  3
   INSTANCE: PART-1-1                                                                        
          THE FORCE     EQUILIBRIUM RESPONSE WAS LINEAR IN THIS INCREMENT

 AVERAGE MOMENT                      173.       TIME AVG. MOMENT       115.    
 LARGEST SCALED RESIDUAL MOMENT    -1.634E-11   AT NODE       1055   DOF  4
   INSTANCE: PART-1-1                                                                        
  CORRESPONDING RESIDUAL MOMENT    -1.634E-11
 LARGEST INCREMENT OF ROTATION      1.141E-04   AT NODE        422   DOF  5
   INSTANCE: PART-1-1                                                                        
 LARGEST CORRECTION TO ROTATION    -8.770E-18   AT NODE        795   DOF  5
   INSTANCE: PART-1-1                                                                        
          THE MOMENT    EQUILIBRIUM RESPONSE WAS LINEAR IN THIS INCREMENT

 ITERATION SUMMARY FOR THE INCREMENT:   1 TOTAL ITERATIONS, OF WHICH
   0 ARE SEVERE DISCONTINUITY ITERATIONS AND  1 ARE EQUILIBRIUM ITERATIONS.

 TIME INCREMENT COMPLETED  1.000E-02,  FRACTION OF STEP COMPLETED  2.000E-02
 STEP TIME COMPLETED       2.000E-02,  TOTAL TIME COMPLETED        2.000E-02


  INCREMENT     3 STARTS. ATTEMPT NUMBER  1, TIME INCREMENT  1.000E-02
 
	SYMMETRIC NEW DIRECT SPARSE SOLVER RUNNING ON
 	1 HOST x 1 MPI RANK PER HOST x 4 THREADS PER RANK
        NUMBER OF EQUATIONS:  6342
        NUMBER OF RHS:        1
        NUMBER OF FLOPS:      1.258e+08
        SOLVER ELAPSED TIME:  9ms

               CONVERGENCE CHECKS FOR EQUILIBRIUM ITERATION     1


 AVERAGE FORCE                       3.53       TIME AVG. FORCE        2.04    
 LARGEST SCALED RESIDUAL FORCE     -6.525E-12   AT NODE        681   DOF  3
   INSTANCE: PART-1-1                                                                        
  CORRESPONDING RESIDUAL FORCE     -6.525E-12
 LARGEST INCREMENT OF DISP.        -9.949E-03   AT NODE        919   DOF  3
   INSTANCE: PART-1-1                                                                        
 LARGEST CORRECTION TO DISP.        3.422E-16   AT NODE        822   DOF  3
   INSTANCE: PART-1-1                                                                        
          THE FORCE     EQUILIBRIUM RESPONSE WAS LINEAR IN THIS INCREMENT

 AVERAGE MOMENT                      260.       TIME AVG. MOMENT       164.    
 LARGEST SCALED RESIDUAL MOMENT     1.540E-11   AT NODE        636   DOF  4
   INSTANCE: PART-1-1                                                                        
  CORRESPONDING RESIDUAL MOMENT     1.540E-11
 LARGEST INCREMENT OF ROTATION      1.141E-04   AT NODE        422   DOF  5
   INSTANCE: PART-1-1                                                                        
 LARGEST CORRECTION TO ROTATION     4.404E-18   AT NODE        795   DOF  5
   INSTANCE: PART-1-1                                                                        
          THE MOMENT    EQUILIBRIUM RESPONSE WAS LINEAR IN THIS INCREMENT

 ITERATION SUMMARY FOR THE INCREMENT:   1 TOTAL ITERATIONS, OF WHICH
   0 ARE SEVERE DISCONTINUITY ITERATIONS AND  1 ARE EQUILIBRIUM ITERATIONS.

 TIME INCREMENT COMPLETED  1.000E-02,  FRACTION OF STEP COMPLETED  3.000E-02
 STEP TIME COMPLETED       3.000E-02,  TOTAL TIME COMPLETED        3.000E-02


  INCREMENT     4 STARTS. ATTEMPT NUMBER  1, TIME INCREMENT  1.000E-02
 
	SYMMETRIC NEW DIRECT SPARSE SOLVER RUNNING ON
 	1 HOST x 1 MPI RANK PER HOST x 4 THREADS PER RANK
        NUMBER OF EQUATIONS:  6342
        NUMBER OF RHS:        1
        NUMBER OF FLOPS:      1.258e+08
        SOLVER ELAPSED TIME:  102ms

               CONVERGENCE CHECKS FOR EQUILIBRIUM ITERATION     1


 AVERAGE FORCE                       4.71       TIME AVG. FORCE        2.70    
 LARGEST SCALED RESIDUAL FORCE     -9.033E-12   AT NODE       1035   DOF  3
   INSTANCE: PART-1-1                                                                        
  CORRESPONDING RESIDUAL FORCE     -9.033E-12
 LARGEST INCREMENT OF DISP.        -9.949E-03   AT NODE        919   DOF  3
   INSTANCE: PART-1-1                                                                        
 LARGEST CORRECTION TO DISP.       -2.227E-17   AT NODE        824   DOF  3
   INSTANCE: PART-1-1                                                                        
          THE FORCE     EQUILIBRIUM RESPONSE WAS LINEAR IN THIS INCREMENT

 AVERAGE MOMENT                      346.       TIME AVG. MOMENT       209.    
 LARGEST SCALED RESIDUAL MOMENT    -2.143E-11   AT NODE        878   DOF  4
   INSTANCE: PART-1-1                                                                        
  CORRESPONDING RESIDUAL MOMENT    -2.143E-11
 LARGEST INCREMENT OF ROTATION      1.141E-04   AT NODE        422   DOF  5
   INSTANCE: PART-1-1                                                                        
 LARGEST CORRECTION TO ROTATION    -6.595E-19   AT NODE        823   DOF  4
   INSTANCE: PART-1-1                                                                        
          THE MOMENT    EQUILIBRIUM RESPONSE WAS LINEAR IN THIS INCREMENT

 ITERATION SUMMARY FOR THE INCREMENT:   1 TOTAL ITERATIONS, OF WHICH
   0 ARE SEVERE DISCONTINUITY ITERATIONS AND  1 ARE EQUILIBRIUM ITERATIONS.

 TIME INCREMENT COMPLETED  1.000E-02,  FRACTION OF STEP COMPLETED  4.000E-02
 STEP TIME COMPLETED       4.000E-02,  TOTAL TIME COMPLETED        4.000E-02


  INCREMENT     5 STARTS. ATTEMPT NUMBER  1, TIME INCREMENT  1.000E-02
 
	SYMMETRIC NEW DIRECT SPARSE SOLVER RUNNING ON
 	1 HOST x 1 MPI RANK PER HOST x 4 THREADS PER RANK
        NUMBER OF EQUATIONS:  6342
        NUMBER OF RHS:        1
        NUMBER OF FLOPS:      1.258e+08
        SOLVER ELAPSED TIME:  41ms

               CONVERGENCE CHECKS FOR EQUILIBRIUM ITERATION     1


 AVERAGE FORCE                       5.89       TIME AVG. FORCE        3.34    
 LARGEST SCALED RESIDUAL FORCE      1.078E-11   AT NODE        572   DOF  3
   INSTANCE: PART-1-1                                                                        
  CORRESPONDING RESIDUAL FORCE      1.078E-11
 LARGEST INCREMENT OF DISP.        -9.949E-03   AT NODE        919   DOF  3
   INSTANCE: PART-1-1                                                                        
 LARGEST CORRECTION TO DISP.        2.307E-17   AT NODE        738   DOF  3
   INSTANCE: PART-1-1                                                                        
          THE FORCE     EQUILIBRIUM RESPONSE WAS LINEAR IN THIS INCREMENT

 AVERAGE MOMENT                      433.       TIME AVG. MOMENT       254.    
 LARGEST SCALED RESIDUAL MOMENT    -2.240E-11   AT NODE        783   DOF  5
   INSTANCE: PART-1-1                                                                        
  CORRESPONDING RESIDUAL MOMENT    -2.240E-11
 LARGEST INCREMENT OF ROTATION      1.141E-04   AT NODE        422   DOF  5
   INSTANCE: PART-1-1                                                                        
 LARGEST CORRECTION TO ROTATION    -9.479E-19   AT NODE        562   DOF  5
   INSTANCE: PART-1-1                                                                        
          THE MOMENT    EQUILIBRIUM RESPONSE WAS LINEAR IN THIS INCREMENT

 ITERATION SUMMARY FOR THE INCREMENT:   1 TOTAL ITERATIONS, OF WHICH
   0 ARE SEVERE DISCONTINUITY ITERATIONS AND  1 ARE EQUILIBRIUM ITERATIONS.

 TIME INCREMENT COMPLETED  1.000E-02,  FRACTION OF STEP COMPLETED  5.000E-02
 STEP TIME COMPLETED       5.000E-02,  TOTAL TIME COMPLETED        5.000E-02


  INCREMENT     6 STARTS. ATTEMPT NUMBER  1, TIME INCREMENT  1.000E-02
 
	SYMMETRIC NEW DIRECT SPARSE SOLVER RUNNING ON
 	1 HOST x 1 MPI RANK PER HOST x 4 THREADS PER RANK
        NUMBER OF EQUATIONS:  6342
        NUMBER OF RHS:        1
        NUMBER OF FLOPS:      1.258e+08
        SOLVER ELAPSED TIME:  42ms

               CONVERGENCE CHECKS FOR EQUILIBRIUM ITERATION     1


 AVERAGE FORCE                       7.07       TIME AVG. FORCE        3.96    
 LARGEST SCALED RESIDUAL FORCE     -1.188E-11   AT NODE        568   DOF  3
   INSTANCE: PART-1-1                                                                        
  CORRESPONDING RESIDUAL FORCE     -1.188E-11
 LARGEST INCREMENT OF DISP.        -9.949E-03   AT NODE        919   DOF  3
   INSTANCE: PART-1-1                                                                        
 LARGEST CORRECTION TO DISP.        2.937E-17   AT NODE        513   DOF  3
   INSTANCE: PART-1-1                                                                        
          THE FORCE     EQUILIBRIUM RESPONSE WAS LINEAR IN THIS INCREMENT

 AVERAGE MOMENT                      520.       TIME AVG. MOMENT       298.    
 LARGEST SCALED RESIDUAL MOMENT    -2.598E-11   AT NODE        465   DOF  4
   INSTANCE: PART-1-1                                                                        
  CORRESPONDING RESIDUAL MOMENT    -2.598E-11
 LARGEST INCREMENT OF ROTATION      1.141E-04   AT NODE        422   DOF  5
   INSTANCE: PART-1-1                                                                        
 LARGEST CORRECTION TO ROTATION     1.008E-18   AT NODE        118   DOF  4
   INSTANCE: PART-1-1                                                                        
          THE MOMENT    EQUILIBRIUM RESPONSE WAS LINEAR IN THIS INCREMENT

 ITERATION SUMMARY FOR THE INCREMENT:   1 TOTAL ITERATIONS, OF WHICH
   0 ARE SEVERE DISCONTINUITY ITERATIONS AND  1 ARE EQUILIBRIUM ITERATIONS.

 TIME INCREMENT COMPLETED  1.000E-02,  FRACTION OF STEP COMPLETED  6.000E-02
 STEP TIME COMPLETED       6.000E-02,  TOTAL TIME COMPLETED        6.000E-02


  INCREMENT     7 STARTS. ATTEMPT NUMBER  1, TIME INCREMENT  1.000E-02
 
	SYMMETRIC NEW DIRECT SPARSE SOLVER RUNNING ON
 	1 HOST x 1 MPI RANK PER HOST x 4 THREADS PER RANK
        NUMBER OF EQUATIONS:  6342
        NUMBER OF RHS:        1
        NUMBER OF FLOPS:      1.258e+08
        SOLVER ELAPSED TIME:  161ms

               CONVERGENCE CHECKS FOR EQUILIBRIUM ITERATION     1


 AVERAGE FORCE                       8.25       TIME AVG. FORCE        4.57    
 LARGEST SCALED RESIDUAL FORCE     -1.524E-11   AT NODE        564   DOF  3
   INSTANCE: PART-1-1                                                                        
  CORRESPONDING RESIDUAL FORCE     -1.524E-11
 LARGEST INCREMENT OF DISP.        -9.949E-03   AT NODE        919   DOF  3
   INSTANCE: PART-1-1                                                                        
 LARGEST CORRECTION TO DISP.        3.086E-17   AT NODE       1036   DOF  3
   INSTANCE: PART-1-1                                                                        
          THE FORCE     EQUILIBRIUM RESPONSE WAS LINEAR IN THIS INCREMENT

 AVERAGE MOMENT                      606.       TIME AVG. MOMENT       342.    
 LARGEST SCALED RESIDUAL MOMENT     3.612E-11   AT NODE        919   DOF  4
   INSTANCE: PART-1-1                                                                        
  CORRESPONDING RESIDUAL MOMENT     3.612E-11
 LARGEST INCREMENT OF ROTATION      1.141E-04   AT NODE        422   DOF  5
   INSTANCE: PART-1-1                                                                        
 LARGEST CORRECTION TO ROTATION    -1.291E-18   AT NODE        753   DOF  4
   INSTANCE: PART-1-1                                                                        
          THE MOMENT    EQUILIBRIUM RESPONSE WAS LINEAR IN THIS INCREMENT

 ITERATION SUMMARY FOR THE INCREMENT:   1 TOTAL ITERATIONS, OF WHICH
   0 ARE SEVERE DISCONTINUITY ITERATIONS AND  1 ARE EQUILIBRIUM ITERATIONS.

 TIME INCREMENT COMPLETED  1.000E-02,  FRACTION OF STEP COMPLETED  7.000E-02
 STEP TIME COMPLETED       7.000E-02,  TOTAL TIME COMPLETED        7.000E-02


  INCREMENT     8 STARTS. ATTEMPT NUMBER  1, TIME INCREMENT  1.000E-02
 
	SYMMETRIC NEW DIRECT SPARSE SOLVER RUNNING ON
 	1 HOST x 1 MPI RANK PER HOST x 4 THREADS PER RANK
        NUMBER OF EQUATIONS:  6342
        NUMBER OF RHS:        1
        NUMBER OF FLOPS:      1.258e+08
        SOLVER ELAPSED TIME:  46ms

               CONVERGENCE CHECKS FOR EQUILIBRIUM ITERATION     1


 AVERAGE FORCE                       9.42       TIME AVG. FORCE        5.18    
 LARGEST SCALED RESIDUAL FORCE     -1.503E-11   AT NODE        231   DOF  3
   INSTANCE: PART-1-1                                                                        
  CORRESPONDING RESIDUAL FORCE     -1.503E-11
 LARGEST INCREMENT OF DISP.        -9.949E-03   AT NODE        919   DOF  3
   INSTANCE: PART-1-1                                                                        
 LARGEST CORRECTION TO DISP.       -3.830E-17   AT NODE        564   DOF  3
   INSTANCE: PART-1-1                                                                        
          THE FORCE     EQUILIBRIUM RESPONSE WAS LINEAR IN THIS INCREMENT

 AVERAGE MOMENT                      693.       TIME AVG. MOMENT       386.    
 LARGEST SCALED RESIDUAL MOMENT     4.889E-11   AT NODE        751   DOF  4
   INSTANCE: PART-1-1                                                                        
  CORRESPONDING RESIDUAL MOMENT     4.889E-11
 LARGEST INCREMENT OF ROTATION      1.141E-04   AT NODE        422   DOF  5
   INSTANCE: PART-1-1                                                                        
 LARGEST CORRECTION TO ROTATION     1.819E-18   AT NODE        753   DOF  4
   INSTANCE: PART-1-1                                                                        
          THE MOMENT    EQUILIBRIUM RESPONSE WAS LINEAR IN THIS INCREMENT

 ITERATION SUMMARY FOR THE INCREMENT:   1 TOTAL ITERATIONS, OF WHICH
   0 ARE SEVERE DISCONTINUITY ITERATIONS AND  1 ARE EQUILIBRIUM ITERATIONS.

 TIME INCREMENT COMPLETED  1.000E-02,  FRACTION OF STEP COMPLETED  8.000E-02
 STEP TIME COMPLETED       8.000E-02,  TOTAL TIME COMPLETED        8.000E-02


  INCREMENT     9 STARTS. ATTEMPT NUMBER  1, TIME INCREMENT  1.000E-02
 
	SYMMETRIC NEW DIRECT SPARSE SOLVER RUNNING ON
 	1 HOST x 1 MPI RANK PER HOST x 4 THREADS PER RANK
        NUMBER OF EQUATIONS:  6342
        NUMBER OF RHS:        1
        NUMBER OF FLOPS:      1.258e+08
        SOLVER ELAPSED TIME:  72ms

               CONVERGENCE CHECKS FOR EQUILIBRIUM ITERATION     1


 AVERAGE FORCE                       10.6       TIME AVG. FORCE        5.78    
 LARGEST SCALED RESIDUAL FORCE     -1.920E-11   AT NODE        526   DOF  3
   INSTANCE: PART-1-1                                                                        
  CORRESPONDING RESIDUAL FORCE     -1.920E-11
 LARGEST INCREMENT OF DISP.        -9.949E-03   AT NODE        919   DOF  3
   INSTANCE: PART-1-1                                                                        
 LARGEST CORRECTION TO DISP.       -4.385E-17   AT NODE        887   DOF  3
   INSTANCE: PART-1-1                                                                        
          THE FORCE     EQUILIBRIUM RESPONSE WAS LINEAR IN THIS INCREMENT

 AVERAGE MOMENT                      779.       TIME AVG. MOMENT       430.    
 LARGEST SCALED RESIDUAL MOMENT    -5.423E-11   AT NODE        944   DOF  5
   INSTANCE: PART-1-1                                                                        
  CORRESPONDING RESIDUAL MOMENT    -5.423E-11
 LARGEST INCREMENT OF ROTATION      1.141E-04   AT NODE        422   DOF  5
   INSTANCE: PART-1-1                                                                        
 LARGEST CORRECTION TO ROTATION     1.720E-18   AT NODE        465   DOF  4
   INSTANCE: PART-1-1                                                                        
          THE MOMENT    EQUILIBRIUM RESPONSE WAS LINEAR IN THIS INCREMENT

 ITERATION SUMMARY FOR THE INCREMENT:   1 TOTAL ITERATIONS, OF WHICH
   0 ARE SEVERE DISCONTINUITY ITERATIONS AND  1 ARE EQUILIBRIUM ITERATIONS.

 TIME INCREMENT COMPLETED  1.000E-02,  FRACTION OF STEP COMPLETED  9.000E-02
 STEP TIME COMPLETED       9.000E-02,  TOTAL TIME COMPLETED        9.000E-02


  INCREMENT    10 STARTS. ATTEMPT NUMBER  1, TIME INCREMENT  1.000E-02
 
	SYMMETRIC NEW DIRECT SPARSE SOLVER RUNNING ON
 	1 HOST x 1 MPI RANK PER HOST x 4 THREADS PER RANK
        NUMBER OF EQUATIONS:  6342
        NUMBER OF RHS:        1
        NUMBER OF FLOPS:      1.258e+08
        SOLVER ELAPSED TIME:  46ms

               CONVERGENCE CHECKS FOR EQUILIBRIUM ITERATION     1


 AVERAGE FORCE                       11.8       TIME AVG. FORCE        6.38    
 LARGEST SCALED RESIDUAL FORCE      1.769E-11   AT NODE        563   DOF  3
   INSTANCE: PART-1-1                                                                        
  CORRESPONDING RESIDUAL FORCE      1.769E-11
 LARGEST INCREMENT OF DISP.        -9.949E-03   AT NODE        919   DOF  3
   INSTANCE: PART-1-1                                                                        
 LARGEST CORRECTION TO DISP.        5.938E-17   AT NODE       1052   DOF  3
   INSTANCE: PART-1-1                                                                        
          THE FORCE     EQUILIBRIUM RESPONSE WAS LINEAR IN THIS INCREMENT

 AVERAGE MOMENT                      866.       TIME AVG. MOMENT       473.    
 LARGEST SCALED RESIDUAL MOMENT     4.502E-11   AT NODE        645   DOF  4
   INSTANCE: PART-1-1                                                                        
  CORRESPONDING RESIDUAL MOMENT     4.502E-11
 LARGEST INCREMENT OF ROTATION      1.141E-04   AT NODE        422   DOF  5
   INSTANCE: PART-1-1                                                                        
 LARGEST CORRECTION TO ROTATION     1.974E-18   AT NODE        747   DOF  4
   INSTANCE: PART-1-1                                                                        
          THE MOMENT    EQUILIBRIUM RESPONSE WAS LINEAR IN THIS INCREMENT

 ITERATION SUMMARY FOR THE INCREMENT:   1 TOTAL ITERATIONS, OF WHICH
   0 ARE SEVERE DISCONTINUITY ITERATIONS AND  1 ARE EQUILIBRIUM ITERATIONS.

 TIME INCREMENT COMPLETED  1.000E-02,  FRACTION OF STEP COMPLETED  0.100    
 STEP TIME COMPLETED       0.100    ,  TOTAL TIME COMPLETED        0.100    


  INCREMENT    11 STARTS. ATTEMPT NUMBER  1, TIME INCREMENT  1.000E-02
 
	SYMMETRIC NEW DIRECT SPARSE SOLVER RUNNING ON
 	1 HOST x 1 MPI RANK PER HOST x 4 THREADS PER RANK
        NUMBER OF EQUATIONS:  6342
        NUMBER OF RHS:        1
        NUMBER OF FLOPS:      1.258e+08
        SOLVER ELAPSED TIME:  68ms

               CONVERGENCE CHECKS FOR EQUILIBRIUM ITERATION     1


 AVERAGE FORCE                       13.0       TIME AVG. FORCE        6.98    
 LARGEST SCALED RESIDUAL FORCE      1.866E-11   AT NODE        684   DOF  3
   INSTANCE: PART-1-1                                                                        
  CORRESPONDING RESIDUAL FORCE      1.866E-11
 LARGEST INCREMENT OF DISP.        -9.949E-03   AT NODE        919   DOF  3
   INSTANCE: PART-1-1                                                                        
 LARGEST CORRECTION TO DISP.       -7.763E-17   AT NODE        571   DOF  3
   INSTANCE: PART-1-1                                                                        
          THE FORCE     EQUILIBRIUM RESPONSE WAS LINEAR IN THIS INCREMENT

 AVERAGE MOMENT                      953.       TIME AVG. MOMENT       517.    
 LARGEST SCALED RESIDUAL MOMENT    -4.286E-11   AT NODE        723   DOF  4
   INSTANCE: PART-1-1                                                                        
  CORRESPONDING RESIDUAL MOMENT    -4.286E-11
 LARGEST INCREMENT OF ROTATION      1.141E-04   AT NODE        422   DOF  5
   INSTANCE: PART-1-1                                                                        
 LARGEST CORRECTION TO ROTATION     2.131E-18   AT NODE        683   DOF  4
   INSTANCE: PART-1-1                                                                        
          THE MOMENT    EQUILIBRIUM RESPONSE WAS LINEAR IN THIS INCREMENT

 ITERATION SUMMARY FOR THE INCREMENT:   1 TOTAL ITERATIONS, OF WHICH
   0 ARE SEVERE DISCONTINUITY ITERATIONS AND  1 ARE EQUILIBRIUM ITERATIONS.

 TIME INCREMENT COMPLETED  1.000E-02,  FRACTION OF STEP COMPLETED  0.110    
 STEP TIME COMPLETED       0.110    ,  TOTAL TIME COMPLETED        0.110    


  INCREMENT    12 STARTS. ATTEMPT NUMBER  1, TIME INCREMENT  1.000E-02
 
	SYMMETRIC NEW DIRECT SPARSE SOLVER RUNNING ON
 	1 HOST x 1 MPI RANK PER HOST x 4 THREADS PER RANK
        NUMBER OF EQUATIONS:  6342
        NUMBER OF RHS:        1
        NUMBER OF FLOPS:      1.258e+08
        SOLVER ELAPSED TIME:  47ms

               CONVERGENCE CHECKS FOR EQUILIBRIUM ITERATION     1


 AVERAGE FORCE                       14.1       TIME AVG. FORCE        7.58    
 LARGEST SCALED RESIDUAL FORCE      1.984E-11   AT NODE        661   DOF  3
   INSTANCE: PART-1-1                                                                        
  CORRESPONDING RESIDUAL FORCE      1.984E-11
 LARGEST INCREMENT OF DISP.        -9.949E-03   AT NODE        919   DOF  3
   INSTANCE: PART-1-1                                                                        
 LARGEST CORRECTION TO DISP.       -5.955E-17   AT NODE       1053   DOF  3
   INSTANCE: PART-1-1                                                                        
          THE FORCE     EQUILIBRIUM RESPONSE WAS LINEAR IN THIS INCREMENT

 AVERAGE MOMENT                     1.039E+03   TIME AVG. MOMENT       561.    
 LARGEST SCALED RESIDUAL MOMENT    -5.855E-11   AT NODE        611   DOF  4
   INSTANCE: PART-1-1                                                                        
  CORRESPONDING RESIDUAL MOMENT    -5.855E-11
 LARGEST INCREMENT OF ROTATION      1.141E-04   AT NODE        422   DOF  5
   INSTANCE: PART-1-1                                                                        
 LARGEST CORRECTION TO ROTATION    -2.388E-18   AT NODE        833   DOF  4
   INSTANCE: PART-1-1                                                                        
          THE MOMENT    EQUILIBRIUM RESPONSE WAS LINEAR IN THIS INCREMENT

 ITERATION SUMMARY FOR THE INCREMENT:   1 TOTAL ITERATIONS, OF WHICH
   0 ARE SEVERE DISCONTINUITY ITERATIONS AND  1 ARE EQUILIBRIUM ITERATIONS.

 TIME INCREMENT COMPLETED  1.000E-02,  FRACTION OF STEP COMPLETED  0.120    
 STEP TIME COMPLETED       0.120    ,  TOTAL TIME COMPLETED        0.120    


  INCREMENT    13 STARTS. ATTEMPT NUMBER  1, TIME INCREMENT  1.000E-02
 
	SYMMETRIC NEW DIRECT SPARSE SOLVER RUNNING ON
 	1 HOST x 1 MPI RANK PER HOST x 4 THREADS PER RANK
        NUMBER OF EQUATIONS:  6342
        NUMBER OF RHS:        1
        NUMBER OF FLOPS:      1.258e+08
        SOLVER ELAPSED TIME:  70ms

               CONVERGENCE CHECKS FOR EQUILIBRIUM ITERATION     1


 AVERAGE FORCE                       15.3       TIME AVG. FORCE        8.17    
 LARGEST SCALED RESIDUAL FORCE      3.036E-11   AT NODE        786   DOF  3
   INSTANCE: PART-1-1                                                                        
  CORRESPONDING RESIDUAL FORCE      3.036E-11
 LARGEST INCREMENT OF DISP.        -9.949E-03   AT NODE        919   DOF  3
   INSTANCE: PART-1-1                                                                        
 LARGEST CORRECTION TO DISP.       -6.419E-17   AT NODE        244   DOF  3
   INSTANCE: PART-1-1                                                                        
          THE FORCE     EQUILIBRIUM RESPONSE WAS LINEAR IN THIS INCREMENT

 AVERAGE MOMENT                     1.126E+03   TIME AVG. MOMENT       604.    
 LARGEST SCALED RESIDUAL MOMENT     7.776E-11   AT NODE        753   DOF  4
   INSTANCE: PART-1-1                                                                        
  CORRESPONDING RESIDUAL MOMENT     7.776E-11
 LARGEST INCREMENT OF ROTATION      1.141E-04   AT NODE        422   DOF  5
   INSTANCE: PART-1-1                                                                        
 LARGEST CORRECTION TO ROTATION     2.455E-18   AT NODE        114   DOF  4
   INSTANCE: PART-1-1                                                                        
          THE MOMENT    EQUILIBRIUM RESPONSE WAS LINEAR IN THIS INCREMENT

 ITERATION SUMMARY FOR THE INCREMENT:   1 TOTAL ITERATIONS, OF WHICH
   0 ARE SEVERE DISCONTINUITY ITERATIONS AND  1 ARE EQUILIBRIUM ITERATIONS.

 TIME INCREMENT COMPLETED  1.000E-02,  FRACTION OF STEP COMPLETED  0.130    
 STEP TIME COMPLETED       0.130    ,  TOTAL TIME COMPLETED        0.130    


  INCREMENT    14 STARTS. ATTEMPT NUMBER  1, TIME INCREMENT  1.000E-02
 
	SYMMETRIC NEW DIRECT SPARSE SOLVER RUNNING ON
 	1 HOST x 1 MPI RANK PER HOST x 4 THREADS PER RANK
        NUMBER OF EQUATIONS:  6342
        NUMBER OF RHS:        1
        NUMBER OF FLOPS:      1.258e+08
        SOLVER ELAPSED TIME:  101ms

               CONVERGENCE CHECKS FOR EQUILIBRIUM ITERATION     1


 AVERAGE FORCE                       16.5       TIME AVG. FORCE        8.77    
 LARGEST SCALED RESIDUAL FORCE      3.548E-11   AT NODE       1054   DOF  3
   INSTANCE: PART-1-1                                                                        
  CORRESPONDING RESIDUAL FORCE      3.548E-11
 LARGEST INCREMENT OF DISP.        -9.949E-03   AT NODE        919   DOF  3
   INSTANCE: PART-1-1                                                                        
 LARGEST CORRECTION TO DISP.       -6.630E-17   AT NODE        895   DOF  3
   INSTANCE: PART-1-1                                                                        
          THE FORCE     EQUILIBRIUM RESPONSE WAS LINEAR IN THIS INCREMENT

 AVERAGE MOMENT                     1.212E+03   TIME AVG. MOMENT       647.    
 LARGEST SCALED RESIDUAL MOMENT    -7.844E-11   AT NODE        750   DOF  4
   INSTANCE: PART-1-1                                                                        
  CORRESPONDING RESIDUAL MOMENT    -7.844E-11
 LARGEST INCREMENT OF ROTATION      1.141E-04   AT NODE        422   DOF  5
   INSTANCE: PART-1-1                                                                        
 LARGEST CORRECTION TO ROTATION     3.667E-18   AT NODE        824   DOF  5
   INSTANCE: PART-1-1                                                                        
          THE MOMENT    EQUILIBRIUM RESPONSE WAS LINEAR IN THIS INCREMENT

 ITERATION SUMMARY FOR THE INCREMENT:   1 TOTAL ITERATIONS, OF WHICH
   0 ARE SEVERE DISCONTINUITY ITERATIONS AND  1 ARE EQUILIBRIUM ITERATIONS.

 TIME INCREMENT COMPLETED  1.000E-02,  FRACTION OF STEP COMPLETED  0.140    
 STEP TIME COMPLETED       0.140    ,  TOTAL TIME COMPLETED        0.140    


  INCREMENT    15 STARTS. ATTEMPT NUMBER  1, TIME INCREMENT  1.000E-02
 
	SYMMETRIC NEW DIRECT SPARSE SOLVER RUNNING ON
 	1 HOST x 1 MPI RANK PER HOST x 4 THREADS PER RANK
        NUMBER OF EQUATIONS:  6342
        NUMBER OF RHS:        1
        NUMBER OF FLOPS:      1.258e+08
        SOLVER ELAPSED TIME:  54ms

               CONVERGENCE CHECKS FOR EQUILIBRIUM ITERATION     1


 AVERAGE FORCE                       17.7       TIME AVG. FORCE        9.36    
 LARGEST SCALED RESIDUAL FORCE      3.133E-11   AT NODE        893   DOF  3
   INSTANCE: PART-1-1                                                                        
  CORRESPONDING RESIDUAL FORCE      3.133E-11
 LARGEST INCREMENT OF DISP.        -9.949E-03   AT NODE        919   DOF  3
   INSTANCE: PART-1-1                                                                        
 LARGEST CORRECTION TO DISP.       -8.803E-17   AT NODE        611   DOF  3
   INSTANCE: PART-1-1                                                                        
          THE FORCE     EQUILIBRIUM RESPONSE WAS LINEAR IN THIS INCREMENT

 AVERAGE MOMENT                     1.299E+03   TIME AVG. MOMENT       691.    
 LARGEST SCALED RESIDUAL MOMENT    -7.913E-11   AT NODE        331   DOF  5
   INSTANCE: PART-1-1                                                                        
  CORRESPONDING RESIDUAL MOMENT    -7.913E-11
 LARGEST INCREMENT OF ROTATION      1.141E-04   AT NODE        422   DOF  5
   INSTANCE: PART-1-1                                                                        
 LARGEST CORRECTION TO ROTATION    -3.622E-18   AT NODE        718   DOF  4
   INSTANCE: PART-1-1                                                                        
          THE MOMENT    EQUILIBRIUM RESPONSE WAS LINEAR IN THIS INCREMENT

 ITERATION SUMMARY FOR THE INCREMENT:   1 TOTAL ITERATIONS, OF WHICH
   0 ARE SEVERE DISCONTINUITY ITERATIONS AND  1 ARE EQUILIBRIUM ITERATIONS.

 TIME INCREMENT COMPLETED  1.000E-02,  FRACTION OF STEP COMPLETED  0.150    
 STEP TIME COMPLETED       0.150    ,  TOTAL TIME COMPLETED        0.150    


  INCREMENT    16 STARTS. ATTEMPT NUMBER  1, TIME INCREMENT  1.000E-02
 
	SYMMETRIC NEW DIRECT SPARSE SOLVER RUNNING ON
 	1 HOST x 1 MPI RANK PER HOST x 4 THREADS PER RANK
        NUMBER OF EQUATIONS:  6342
        NUMBER OF RHS:        1
        NUMBER OF FLOPS:      1.258e+08
        SOLVER ELAPSED TIME:  49ms

               CONVERGENCE CHECKS FOR EQUILIBRIUM ITERATION     1


 AVERAGE FORCE                       18.8       TIME AVG. FORCE        9.95    
 LARGEST SCALED RESIDUAL FORCE      3.544E-11   AT NODE        644   DOF  3
   INSTANCE: PART-1-1                                                                        
  CORRESPONDING RESIDUAL FORCE      3.544E-11
 LARGEST INCREMENT OF DISP.        -9.949E-03   AT NODE        919   DOF  3
   INSTANCE: PART-1-1                                                                        
 LARGEST CORRECTION TO DISP.        1.312E-16   AT NODE        851   DOF  3
   INSTANCE: PART-1-1                                                                        
          THE FORCE     EQUILIBRIUM RESPONSE WAS LINEAR IN THIS INCREMENT

 AVERAGE MOMENT                     1.386E+03   TIME AVG. MOMENT       734.    
 LARGEST SCALED RESIDUAL MOMENT    -9.743E-11   AT NODE        518   DOF  4
   INSTANCE: PART-1-1                                                                        
  CORRESPONDING RESIDUAL MOMENT    -9.743E-11
 LARGEST INCREMENT OF ROTATION      1.141E-04   AT NODE        422   DOF  5
   INSTANCE: PART-1-1                                                                        
 LARGEST CORRECTION TO ROTATION     3.188E-18   AT NODE        505   DOF  4
   INSTANCE: PART-1-1                                                                        
          THE MOMENT    EQUILIBRIUM RESPONSE WAS LINEAR IN THIS INCREMENT

 ITERATION SUMMARY FOR THE INCREMENT:   1 TOTAL ITERATIONS, OF WHICH
   0 ARE SEVERE DISCONTINUITY ITERATIONS AND  1 ARE EQUILIBRIUM ITERATIONS.

 TIME INCREMENT COMPLETED  1.000E-02,  FRACTION OF STEP COMPLETED  0.160    
 STEP TIME COMPLETED       0.160    ,  TOTAL TIME COMPLETED        0.160    


  INCREMENT    17 STARTS. ATTEMPT NUMBER  1, TIME INCREMENT  1.000E-02
 
	SYMMETRIC NEW DIRECT SPARSE SOLVER RUNNING ON
 	1 HOST x 1 MPI RANK PER HOST x 4 THREADS PER RANK
        NUMBER OF EQUATIONS:  6342
        NUMBER OF RHS:        1
        NUMBER OF FLOPS:      1.258e+08
        SOLVER ELAPSED TIME:  38ms

               CONVERGENCE CHECKS FOR EQUILIBRIUM ITERATION     1


 AVERAGE FORCE                       20.0       TIME AVG. FORCE        10.5    
 LARGEST SCALED RESIDUAL FORCE      3.326E-11   AT NODE       1052   DOF  3
   INSTANCE: PART-1-1                                                                        
  CORRESPONDING RESIDUAL FORCE      3.326E-11
 LARGEST INCREMENT OF DISP.        -9.949E-03   AT NODE        919   DOF  3
   INSTANCE: PART-1-1                                                                        
 LARGEST CORRECTION TO DISP.       -1.321E-16   AT NODE        851   DOF  3
   INSTANCE: PART-1-1                                                                        
          THE FORCE     EQUILIBRIUM RESPONSE WAS LINEAR IN THIS INCREMENT

 AVERAGE MOMENT                     1.472E+03   TIME AVG. MOMENT       778.    
 LARGEST SCALED RESIDUAL MOMENT     9.709E-11   AT NODE        644   DOF  4
   INSTANCE: PART-1-1                                                                        
  CORRESPONDING RESIDUAL MOMENT     9.709E-11
 LARGEST INCREMENT OF ROTATION      1.141E-04   AT NODE        422   DOF  5
   INSTANCE: PART-1-1                                                                        
 LARGEST CORRECTION TO ROTATION     4.464E-18   AT NODE       1042   DOF  4
   INSTANCE: PART-1-1                                                                        
          THE MOMENT    EQUILIBRIUM RESPONSE WAS LINEAR IN THIS INCREMENT

 ITERATION SUMMARY FOR THE INCREMENT:   1 TOTAL ITERATIONS, OF WHICH
   0 ARE SEVERE DISCONTINUITY ITERATIONS AND  1 ARE EQUILIBRIUM ITERATIONS.

 TIME INCREMENT COMPLETED  1.000E-02,  FRACTION OF STEP COMPLETED  0.170    
 STEP TIME COMPLETED       0.170    ,  TOTAL TIME COMPLETED        0.170    


  INCREMENT    18 STARTS. ATTEMPT NUMBER  1, TIME INCREMENT  1.000E-02
 
	SYMMETRIC NEW DIRECT SPARSE SOLVER RUNNING ON
 	1 HOST x 1 MPI RANK PER HOST x 4 THREADS PER RANK
        NUMBER OF EQUATIONS:  6342
        NUMBER OF RHS:        1
        NUMBER OF FLOPS:      1.258e+08
        SOLVER ELAPSED TIME:  44ms

               CONVERGENCE CHECKS FOR EQUILIBRIUM ITERATION     1


 AVERAGE FORCE                       21.2       TIME AVG. FORCE        11.1    
 LARGEST SCALED RESIDUAL FORCE      3.476E-11   AT NODE       1035   DOF  3
   INSTANCE: PART-1-1                                                                        
  CORRESPONDING RESIDUAL FORCE      3.476E-11
 LARGEST INCREMENT OF DISP.        -9.949E-03   AT NODE        919   DOF  3
   INSTANCE: PART-1-1                                                                        
 LARGEST CORRECTION TO DISP.       -1.141E-16   AT NODE        452   DOF  3
   INSTANCE: PART-1-1                                                                        
          THE FORCE     EQUILIBRIUM RESPONSE WAS LINEAR IN THIS INCREMENT

 AVERAGE MOMENT                     1.559E+03   TIME AVG. MOMENT       821.    
 LARGEST SCALED RESIDUAL MOMENT    -1.148E-10   AT NODE        242   DOF  4
   INSTANCE: PART-1-1                                                                        
  CORRESPONDING RESIDUAL MOMENT    -1.148E-10
 LARGEST INCREMENT OF ROTATION      1.141E-04   AT NODE        422   DOF  5
   INSTANCE: PART-1-1                                                                        
 LARGEST CORRECTION TO ROTATION     4.905E-18   AT NODE       1045   DOF  4
   INSTANCE: PART-1-1                                                                        
          THE MOMENT    EQUILIBRIUM RESPONSE WAS LINEAR IN THIS INCREMENT

 ITERATION SUMMARY FOR THE INCREMENT:   1 TOTAL ITERATIONS, OF WHICH
   0 ARE SEVERE DISCONTINUITY ITERATIONS AND  1 ARE EQUILIBRIUM ITERATIONS.

 TIME INCREMENT COMPLETED  1.000E-02,  FRACTION OF STEP COMPLETED  0.180    
 STEP TIME COMPLETED       0.180    ,  TOTAL TIME COMPLETED        0.180    


  INCREMENT    19 STARTS. ATTEMPT NUMBER  1, TIME INCREMENT  1.000E-02
 
	SYMMETRIC NEW DIRECT SPARSE SOLVER RUNNING ON
 	1 HOST x 1 MPI RANK PER HOST x 4 THREADS PER RANK
        NUMBER OF EQUATIONS:  6342
        NUMBER OF RHS:        1
        NUMBER OF FLOPS:      1.258e+08
        SOLVER ELAPSED TIME:  38ms

               CONVERGENCE CHECKS FOR EQUILIBRIUM ITERATION     1


 AVERAGE FORCE                       22.4       TIME AVG. FORCE        11.7    
 LARGEST SCALED RESIDUAL FORCE     -3.647E-11   AT NODE        385   DOF  3
   INSTANCE: PART-1-1                                                                        
  CORRESPONDING RESIDUAL FORCE     -3.647E-11
 LARGEST INCREMENT OF DISP.        -9.949E-03   AT NODE        919   DOF  3
   INSTANCE: PART-1-1                                                                        
 LARGEST CORRECTION TO DISP.        1.337E-16   AT NODE        647   DOF  3
   INSTANCE: PART-1-1                                                                        
          THE FORCE     EQUILIBRIUM RESPONSE WAS LINEAR IN THIS INCREMENT

 AVERAGE MOMENT                     1.645E+03   TIME AVG. MOMENT       865.    
 LARGEST SCALED RESIDUAL MOMENT     1.289E-10   AT NODE        466   DOF  4
   INSTANCE: PART-1-1                                                                        
  CORRESPONDING RESIDUAL MOMENT     1.289E-10
 LARGEST INCREMENT OF ROTATION      1.141E-04   AT NODE        422   DOF  5
   INSTANCE: PART-1-1                                                                        
 LARGEST CORRECTION TO ROTATION    -3.860E-18   AT NODE        887   DOF  4
   INSTANCE: PART-1-1                                                                        
          THE MOMENT    EQUILIBRIUM RESPONSE WAS LINEAR IN THIS INCREMENT

 ITERATION SUMMARY FOR THE INCREMENT:   1 TOTAL ITERATIONS, OF WHICH
   0 ARE SEVERE DISCONTINUITY ITERATIONS AND  1 ARE EQUILIBRIUM ITERATIONS.

 TIME INCREMENT COMPLETED  1.000E-02,  FRACTION OF STEP COMPLETED  0.190    
 STEP TIME COMPLETED       0.190    ,  TOTAL TIME COMPLETED        0.190    


  INCREMENT    20 STARTS. ATTEMPT NUMBER  1, TIME INCREMENT  1.000E-02
 
	SYMMETRIC NEW DIRECT SPARSE SOLVER RUNNING ON
 	1 HOST x 1 MPI RANK PER HOST x 4 THREADS PER RANK
        NUMBER OF EQUATIONS:  6342
        NUMBER OF RHS:        1
        NUMBER OF FLOPS:      1.258e+08
        SOLVER ELAPSED TIME:  152ms

               CONVERGENCE CHECKS FOR EQUILIBRIUM ITERATION     1


 AVERAGE FORCE                       23.6       TIME AVG. FORCE        12.3    
 LARGEST SCALED RESIDUAL FORCE      4.280E-11   AT NODE        738   DOF  3
   INSTANCE: PART-1-1                                                                        
  CORRESPONDING RESIDUAL FORCE      4.280E-11
 LARGEST INCREMENT OF DISP.        -9.949E-03   AT NODE        919   DOF  3
   INSTANCE: PART-1-1                                                                        
 LARGEST CORRECTION TO DISP.       -1.595E-16   AT NODE        875   DOF  3
   INSTANCE: PART-1-1                                                                        
          THE FORCE     EQUILIBRIUM RESPONSE WAS LINEAR IN THIS INCREMENT

 AVERAGE MOMENT                     1.732E+03   TIME AVG. MOMENT       908.    
 LARGEST SCALED RESIDUAL MOMENT    -1.027E-10   AT NODE        518   DOF  4
   INSTANCE: PART-1-1                                                                        
  CORRESPONDING RESIDUAL MOMENT    -1.027E-10
 LARGEST INCREMENT OF ROTATION      1.141E-04   AT NODE        422   DOF  5
   INSTANCE: PART-1-1                                                                        
 LARGEST CORRECTION TO ROTATION     3.922E-18   AT NODE        813   DOF  4
   INSTANCE: PART-1-1                                                                        
          THE MOMENT    EQUILIBRIUM RESPONSE WAS LINEAR IN THIS INCREMENT

 ITERATION SUMMARY FOR THE INCREMENT:   1 TOTAL ITERATIONS, OF WHICH
   0 ARE SEVERE DISCONTINUITY ITERATIONS AND  1 ARE EQUILIBRIUM ITERATIONS.

 TIME INCREMENT COMPLETED  1.000E-02,  FRACTION OF STEP COMPLETED  0.200    
 STEP TIME COMPLETED       0.200    ,  TOTAL TIME COMPLETED        0.200    


  INCREMENT    21 STARTS. ATTEMPT NUMBER  1, TIME INCREMENT  1.000E-02
 
	SYMMETRIC NEW DIRECT SPARSE SOLVER RUNNING ON
 	1 HOST x 1 MPI RANK PER HOST x 4 THREADS PER RANK
        NUMBER OF EQUATIONS:  6342
        NUMBER OF RHS:        1
        NUMBER OF FLOPS:      1.258e+08
        SOLVER ELAPSED TIME:  46ms

               CONVERGENCE CHECKS FOR EQUILIBRIUM ITERATION     1


 AVERAGE FORCE                       24.7       TIME AVG. FORCE        12.9    
 LARGEST SCALED RESIDUAL FORCE      3.450E-11   AT NODE       1022   DOF  3
   INSTANCE: PART-1-1                                                                        
  CORRESPONDING RESIDUAL FORCE      3.450E-11
 LARGEST INCREMENT OF DISP.        -9.949E-03   AT NODE        919   DOF  3
   INSTANCE: PART-1-1                                                                        
 LARGEST CORRECTION TO DISP.        1.719E-16   AT NODE        910   DOF  3
   INSTANCE: PART-1-1                                                                        
          THE FORCE     EQUILIBRIUM RESPONSE WAS LINEAR IN THIS INCREMENT

 AVERAGE MOMENT                     1.819E+03   TIME AVG. MOMENT       951.    
 LARGEST SCALED RESIDUAL MOMENT     8.970E-11   AT NODE        607   DOF  5
   INSTANCE: PART-1-1                                                                        
  CORRESPONDING RESIDUAL MOMENT     8.970E-11
 LARGEST INCREMENT OF ROTATION      1.141E-04   AT NODE        422   DOF  5
   INSTANCE: PART-1-1                                                                        
 LARGEST CORRECTION TO ROTATION    -4.802E-18   AT NODE        611   DOF  5
   INSTANCE: PART-1-1                                                                        
          THE MOMENT    EQUILIBRIUM RESPONSE WAS LINEAR IN THIS INCREMENT

 ITERATION SUMMARY FOR THE INCREMENT:   1 TOTAL ITERATIONS, OF WHICH
   0 ARE SEVERE DISCONTINUITY ITERATIONS AND  1 ARE EQUILIBRIUM ITERATIONS.

 TIME INCREMENT COMPLETED  1.000E-02,  FRACTION OF STEP COMPLETED  0.210    
 STEP TIME COMPLETED       0.210    ,  TOTAL TIME COMPLETED        0.210    


  INCREMENT    22 STARTS. ATTEMPT NUMBER  1, TIME INCREMENT  1.000E-02
 
	SYMMETRIC NEW DIRECT SPARSE SOLVER RUNNING ON
 	1 HOST x 1 MPI RANK PER HOST x 4 THREADS PER RANK
        NUMBER OF EQUATIONS:  6342
        NUMBER OF RHS:        1
        NUMBER OF FLOPS:      1.258e+08
        SOLVER ELAPSED TIME:  3ms

               CONVERGENCE CHECKS FOR EQUILIBRIUM ITERATION     1


 AVERAGE FORCE                       25.9       TIME AVG. FORCE        13.5    
 LARGEST SCALED RESIDUAL FORCE      3.925E-11   AT NODE        562   DOF  3
   INSTANCE: PART-1-1                                                                        
  CORRESPONDING RESIDUAL FORCE      3.925E-11
 LARGEST INCREMENT OF DISP.        -9.949E-03   AT NODE        919   DOF  3
   INSTANCE: PART-1-1                                                                        
 LARGEST CORRECTION TO DISP.       -1.866E-16   AT NODE        395   DOF  3
   INSTANCE: PART-1-1                                                                        
          THE FORCE     EQUILIBRIUM RESPONSE WAS LINEAR IN THIS INCREMENT

 AVERAGE MOMENT                     1.905E+03   TIME AVG. MOMENT       995.    
 LARGEST SCALED RESIDUAL MOMENT    -1.039E-10   AT NODE        601   DOF  4
   INSTANCE: PART-1-1                                                                        
  CORRESPONDING RESIDUAL MOMENT    -1.039E-10
 LARGEST INCREMENT OF ROTATION      1.141E-04   AT NODE        422   DOF  5
   INSTANCE: PART-1-1                                                                        
 LARGEST CORRECTION TO ROTATION     4.211E-18   AT NODE        814   DOF  5
   INSTANCE: PART-1-1                                                                        
          THE MOMENT    EQUILIBRIUM RESPONSE WAS LINEAR IN THIS INCREMENT

 ITERATION SUMMARY FOR THE INCREMENT:   1 TOTAL ITERATIONS, OF WHICH
   0 ARE SEVERE DISCONTINUITY ITERATIONS AND  1 ARE EQUILIBRIUM ITERATIONS.

 TIME INCREMENT COMPLETED  1.000E-02,  FRACTION OF STEP COMPLETED  0.220    
 STEP TIME COMPLETED       0.220    ,  TOTAL TIME COMPLETED        0.220    


  INCREMENT    23 STARTS. ATTEMPT NUMBER  1, TIME INCREMENT  1.000E-02
 
	SYMMETRIC NEW DIRECT SPARSE SOLVER RUNNING ON
 	1 HOST x 1 MPI RANK PER HOST x 4 THREADS PER RANK
        NUMBER OF EQUATIONS:  6342
        NUMBER OF RHS:        1
        NUMBER OF FLOPS:      1.258e+08
        SOLVER ELAPSED TIME:  54ms

               CONVERGENCE CHECKS FOR EQUILIBRIUM ITERATION     1


 AVERAGE FORCE                       27.1       TIME AVG. FORCE        14.1    
 LARGEST SCALED RESIDUAL FORCE      3.666E-11   AT NODE        509   DOF  3
   INSTANCE: PART-1-1                                                                        
  CORRESPONDING RESIDUAL FORCE      3.666E-11
 LARGEST INCREMENT OF DISP.        -9.949E-03   AT NODE        919   DOF  3
   INSTANCE: PART-1-1                                                                        
 LARGEST CORRECTION TO DISP.        1.394E-16   AT NODE        395   DOF  3
   INSTANCE: PART-1-1                                                                        
          THE FORCE     EQUILIBRIUM RESPONSE WAS LINEAR IN THIS INCREMENT

 AVERAGE MOMENT                     1.992E+03   TIME AVG. MOMENT      1.038E+03
 LARGEST SCALED RESIDUAL MOMENT     1.028E-10   AT NODE       1042   DOF  4
   INSTANCE: PART-1-1                                                                        
  CORRESPONDING RESIDUAL MOMENT     1.028E-10
 LARGEST INCREMENT OF ROTATION      1.141E-04   AT NODE        422   DOF  5
   INSTANCE: PART-1-1                                                                        
 LARGEST CORRECTION TO ROTATION     5.410E-18   AT NODE        518   DOF  4
   INSTANCE: PART-1-1                                                                        
          THE MOMENT    EQUILIBRIUM RESPONSE WAS LINEAR IN THIS INCREMENT

 ITERATION SUMMARY FOR THE INCREMENT:   1 TOTAL ITERATIONS, OF WHICH
   0 ARE SEVERE DISCONTINUITY ITERATIONS AND  1 ARE EQUILIBRIUM ITERATIONS.

 TIME INCREMENT COMPLETED  1.000E-02,  FRACTION OF STEP COMPLETED  0.230    
 STEP TIME COMPLETED       0.230    ,  TOTAL TIME COMPLETED        0.230    


  INCREMENT    24 STARTS. ATTEMPT NUMBER  1, TIME INCREMENT  1.000E-02
 
	SYMMETRIC NEW DIRECT SPARSE SOLVER RUNNING ON
 	1 HOST x 1 MPI RANK PER HOST x 4 THREADS PER RANK
        NUMBER OF EQUATIONS:  6342
        NUMBER OF RHS:        1
        NUMBER OF FLOPS:      1.258e+08
        SOLVER ELAPSED TIME:  55ms

               CONVERGENCE CHECKS FOR EQUILIBRIUM ITERATION     1


 AVERAGE FORCE                       28.3       TIME AVG. FORCE        14.7    
 LARGEST SCALED RESIDUAL FORCE     -3.938E-11   AT NODE       1019   DOF  3
   INSTANCE: PART-1-1                                                                        
  CORRESPONDING RESIDUAL FORCE     -3.938E-11
 LARGEST INCREMENT OF DISP.        -9.949E-03   AT NODE        919   DOF  3
   INSTANCE: PART-1-1                                                                        
 LARGEST CORRECTION TO DISP.       -1.636E-16   AT NODE        914   DOF  3
   INSTANCE: PART-1-1                                                                        
          THE FORCE     EQUILIBRIUM RESPONSE WAS LINEAR IN THIS INCREMENT

 AVERAGE MOMENT                     2.078E+03   TIME AVG. MOMENT      1.081E+03
 LARGEST SCALED RESIDUAL MOMENT     1.091E-10   AT NODE        886   DOF  5
   INSTANCE: PART-1-1                                                                        
  CORRESPONDING RESIDUAL MOMENT     1.091E-10
 LARGEST INCREMENT OF ROTATION      1.141E-04   AT NODE        422   DOF  5
   INSTANCE: PART-1-1                                                                        
 LARGEST CORRECTION TO ROTATION    -4.629E-18   AT NODE         63   DOF  4
   INSTANCE: PART-1-1                                                                        
          THE MOMENT    EQUILIBRIUM RESPONSE WAS LINEAR IN THIS INCREMENT

 ITERATION SUMMARY FOR THE INCREMENT:   1 TOTAL ITERATIONS, OF WHICH
   0 ARE SEVERE DISCONTINUITY ITERATIONS AND  1 ARE EQUILIBRIUM ITERATIONS.

 TIME INCREMENT COMPLETED  1.000E-02,  FRACTION OF STEP COMPLETED  0.240    
 STEP TIME COMPLETED       0.240    ,  TOTAL TIME COMPLETED        0.240    


  INCREMENT    25 STARTS. ATTEMPT NUMBER  1, TIME INCREMENT  1.000E-02
 
	SYMMETRIC NEW DIRECT SPARSE SOLVER RUNNING ON
 	1 HOST x 1 MPI RANK PER HOST x 4 THREADS PER RANK
        NUMBER OF EQUATIONS:  6342
        NUMBER OF RHS:        1
        NUMBER OF FLOPS:      1.258e+08
        SOLVER ELAPSED TIME:  71ms

               CONVERGENCE CHECKS FOR EQUILIBRIUM ITERATION     1


 AVERAGE FORCE                       29.4       TIME AVG. FORCE        15.3    
 LARGEST SCALED RESIDUAL FORCE      3.480E-11   AT NODE        888   DOF  3
   INSTANCE: PART-1-1                                                                        
  CORRESPONDING RESIDUAL FORCE      3.480E-11
 LARGEST INCREMENT OF DISP.        -9.949E-03   AT NODE        919   DOF  3
   INSTANCE: PART-1-1                                                                        
 LARGEST CORRECTION TO DISP.        1.311E-16   AT NODE        121   DOF  3
   INSTANCE: PART-1-1                                                                        
          THE FORCE     EQUILIBRIUM RESPONSE WAS LINEAR IN THIS INCREMENT

 AVERAGE MOMENT                     2.165E+03   TIME AVG. MOMENT      1.125E+03
 LARGEST SCALED RESIDUAL MOMENT    -1.091E-10   AT NODE        473   DOF  4
   INSTANCE: PART-1-1                                                                        
  CORRESPONDING RESIDUAL MOMENT    -1.091E-10
 LARGEST INCREMENT OF ROTATION      1.141E-04   AT NODE        422   DOF  5
   INSTANCE: PART-1-1                                                                        
 LARGEST CORRECTION TO ROTATION     5.337E-18   AT NODE        114   DOF  4
   INSTANCE: PART-1-1                                                                        
          THE MOMENT    EQUILIBRIUM RESPONSE WAS LINEAR IN THIS INCREMENT

 ITERATION SUMMARY FOR THE INCREMENT:   1 TOTAL ITERATIONS, OF WHICH
   0 ARE SEVERE DISCONTINUITY ITERATIONS AND  1 ARE EQUILIBRIUM ITERATIONS.

 TIME INCREMENT COMPLETED  1.000E-02,  FRACTION OF STEP COMPLETED  0.250    
 STEP TIME COMPLETED       0.250    ,  TOTAL TIME COMPLETED        0.250    


  INCREMENT    26 STARTS. ATTEMPT NUMBER  1, TIME INCREMENT  1.000E-02
 
	SYMMETRIC NEW DIRECT SPARSE SOLVER RUNNING ON
 	1 HOST x 1 MPI RANK PER HOST x 4 THREADS PER RANK
        NUMBER OF EQUATIONS:  6342
        NUMBER OF RHS:        1
        NUMBER OF FLOPS:      1.258e+08
        SOLVER ELAPSED TIME:  46ms

               CONVERGENCE CHECKS FOR EQUILIBRIUM ITERATION     1


 AVERAGE FORCE                       30.6       TIME AVG. FORCE        15.9    
 LARGEST SCALED RESIDUAL FORCE      4.835E-11   AT NODE        875   DOF  3
   INSTANCE: PART-1-1                                                                        
  CORRESPONDING RESIDUAL FORCE      4.835E-11
 LARGEST INCREMENT OF DISP.        -9.949E-03   AT NODE        919   DOF  3
   INSTANCE: PART-1-1                                                                        
 LARGEST CORRECTION TO DISP.        1.336E-16   AT NODE        888   DOF  3
   INSTANCE: PART-1-1                                                                        
          THE FORCE     EQUILIBRIUM RESPONSE WAS LINEAR IN THIS INCREMENT

 AVERAGE MOMENT                     2.252E+03   TIME AVG. MOMENT      1.168E+03
 LARGEST SCALED RESIDUAL MOMENT     1.241E-10   AT NODE       1051   DOF  4
   INSTANCE: PART-1-1                                                                        
  CORRESPONDING RESIDUAL MOMENT     1.241E-10
 LARGEST INCREMENT OF ROTATION      1.141E-04   AT NODE        422   DOF  5
   INSTANCE: PART-1-1                                                                        
 LARGEST CORRECTION TO ROTATION     4.460E-18   AT NODE        457   DOF  4
   INSTANCE: PART-1-1                                                                        
          THE MOMENT    EQUILIBRIUM RESPONSE WAS LINEAR IN THIS INCREMENT

 ITERATION SUMMARY FOR THE INCREMENT:   1 TOTAL ITERATIONS, OF WHICH
   0 ARE SEVERE DISCONTINUITY ITERATIONS AND  1 ARE EQUILIBRIUM ITERATIONS.

 TIME INCREMENT COMPLETED  1.000E-02,  FRACTION OF STEP COMPLETED  0.260    
 STEP TIME COMPLETED       0.260    ,  TOTAL TIME COMPLETED        0.260    


  INCREMENT    27 STARTS. ATTEMPT NUMBER  1, TIME INCREMENT  1.000E-02
 
	SYMMETRIC NEW DIRECT SPARSE SOLVER RUNNING ON
 	1 HOST x 1 MPI RANK PER HOST x 4 THREADS PER RANK
        NUMBER OF EQUATIONS:  6342
        NUMBER OF RHS:        1
        NUMBER OF FLOPS:      1.258e+08
        SOLVER ELAPSED TIME:  184ms

               CONVERGENCE CHECKS FOR EQUILIBRIUM ITERATION     1


 AVERAGE FORCE                       31.8       TIME AVG. FORCE        16.5    
 LARGEST SCALED RESIDUAL FORCE      6.546E-11   AT NODE        824   DOF  3
   INSTANCE: PART-1-1                                                                        
  CORRESPONDING RESIDUAL FORCE      6.546E-11
 LARGEST INCREMENT OF DISP.        -9.949E-03   AT NODE        919   DOF  3
   INSTANCE: PART-1-1                                                                        
 LARGEST CORRECTION TO DISP.        1.432E-16   AT NODE        118   DOF  3
   INSTANCE: PART-1-1                                                                        
          THE FORCE     EQUILIBRIUM RESPONSE WAS LINEAR IN THIS INCREMENT

 AVERAGE MOMENT                     2.338E+03   TIME AVG. MOMENT      1.211E+03
 LARGEST SCALED RESIDUAL MOMENT    -1.305E-10   AT NODE        852   DOF  4
   INSTANCE: PART-1-1                                                                        
  CORRESPONDING RESIDUAL MOMENT    -1.305E-10
 LARGEST INCREMENT OF ROTATION      1.141E-04   AT NODE        422   DOF  5
   INSTANCE: PART-1-1                                                                        
 LARGEST CORRECTION TO ROTATION    -6.396E-18   AT NODE        878   DOF  5
   INSTANCE: PART-1-1                                                                        
          THE MOMENT    EQUILIBRIUM RESPONSE WAS LINEAR IN THIS INCREMENT

 ITERATION SUMMARY FOR THE INCREMENT:   1 TOTAL ITERATIONS, OF WHICH
   0 ARE SEVERE DISCONTINUITY ITERATIONS AND  1 ARE EQUILIBRIUM ITERATIONS.

 TIME INCREMENT COMPLETED  1.000E-02,  FRACTION OF STEP COMPLETED  0.270    
 STEP TIME COMPLETED       0.270    ,  TOTAL TIME COMPLETED        0.270    


  INCREMENT    28 STARTS. ATTEMPT NUMBER  1, TIME INCREMENT  1.000E-02
 
	SYMMETRIC NEW DIRECT SPARSE SOLVER RUNNING ON
 	1 HOST x 1 MPI RANK PER HOST x 4 THREADS PER RANK
        NUMBER OF EQUATIONS:  6342
        NUMBER OF RHS:        1
        NUMBER OF FLOPS:      1.258e+08
        SOLVER ELAPSED TIME:  89ms

               CONVERGENCE CHECKS FOR EQUILIBRIUM ITERATION     1


 AVERAGE FORCE                       33.0       TIME AVG. FORCE        17.0    
 LARGEST SCALED RESIDUAL FORCE     -6.146E-11   AT NODE        717   DOF  3
   INSTANCE: PART-1-1                                                                        
  CORRESPONDING RESIDUAL FORCE     -6.146E-11
 LARGEST INCREMENT OF DISP.        -9.949E-03   AT NODE        919   DOF  3
   INSTANCE: PART-1-1                                                                        
 LARGEST CORRECTION TO DISP.        1.680E-16   AT NODE        851   DOF  3
   INSTANCE: PART-1-1                                                                        
          THE FORCE     EQUILIBRIUM RESPONSE WAS LINEAR IN THIS INCREMENT

 AVERAGE MOMENT                     2.425E+03   TIME AVG. MOMENT      1.255E+03
 LARGEST SCALED RESIDUAL MOMENT    -1.746E-10   AT NODE       1051   DOF  4
   INSTANCE: PART-1-1                                                                        
  CORRESPONDING RESIDUAL MOMENT    -1.746E-10
 LARGEST INCREMENT OF ROTATION      1.141E-04   AT NODE        422   DOF  5
   INSTANCE: PART-1-1                                                                        
 LARGEST CORRECTION TO ROTATION     5.863E-18   AT NODE        718   DOF  4
   INSTANCE: PART-1-1                                                                        
          THE MOMENT    EQUILIBRIUM RESPONSE WAS LINEAR IN THIS INCREMENT

 ITERATION SUMMARY FOR THE INCREMENT:   1 TOTAL ITERATIONS, OF WHICH
   0 ARE SEVERE DISCONTINUITY ITERATIONS AND  1 ARE EQUILIBRIUM ITERATIONS.

 TIME INCREMENT COMPLETED  1.000E-02,  FRACTION OF STEP COMPLETED  0.280    
 STEP TIME COMPLETED       0.280    ,  TOTAL TIME COMPLETED        0.280    


  INCREMENT    29 STARTS. ATTEMPT NUMBER  1, TIME INCREMENT  1.000E-02
 
	SYMMETRIC NEW DIRECT SPARSE SOLVER RUNNING ON
 	1 HOST x 1 MPI RANK PER HOST x 4 THREADS PER RANK
        NUMBER OF EQUATIONS:  6342
        NUMBER OF RHS:        1
        NUMBER OF FLOPS:      1.258e+08
        SOLVER ELAPSED TIME:  192ms

               CONVERGENCE CHECKS FOR EQUILIBRIUM ITERATION     1


 AVERAGE FORCE                       34.2       TIME AVG. FORCE        17.6    
 LARGEST SCALED RESIDUAL FORCE     -6.697E-11   AT NODE        895   DOF  3
   INSTANCE: PART-1-1                                                                        
  CORRESPONDING RESIDUAL FORCE     -6.697E-11
 LARGEST INCREMENT OF DISP.        -9.949E-03   AT NODE        919   DOF  3
   INSTANCE: PART-1-1                                                                        
 LARGEST CORRECTION TO DISP.       -1.830E-16   AT NODE        521   DOF  3
   INSTANCE: PART-1-1                                                                        
          THE FORCE     EQUILIBRIUM RESPONSE WAS LINEAR IN THIS INCREMENT

 AVERAGE MOMENT                     2.511E+03   TIME AVG. MOMENT      1.298E+03
 LARGEST SCALED RESIDUAL MOMENT    -1.594E-10   AT NODE        681   DOF  4
   INSTANCE: PART-1-1                                                                        
  CORRESPONDING RESIDUAL MOMENT    -1.594E-10
 LARGEST INCREMENT OF ROTATION      1.141E-04   AT NODE        422   DOF  5
   INSTANCE: PART-1-1                                                                        
 LARGEST CORRECTION TO ROTATION     7.130E-18   AT NODE       1054   DOF  5
   INSTANCE: PART-1-1                                                                        
          THE MOMENT    EQUILIBRIUM RESPONSE WAS LINEAR IN THIS INCREMENT

 ITERATION SUMMARY FOR THE INCREMENT:   1 TOTAL ITERATIONS, OF WHICH
   0 ARE SEVERE DISCONTINUITY ITERATIONS AND  1 ARE EQUILIBRIUM ITERATIONS.

 TIME INCREMENT COMPLETED  1.000E-02,  FRACTION OF STEP COMPLETED  0.290    
 STEP TIME COMPLETED       0.290    ,  TOTAL TIME COMPLETED        0.290    


  INCREMENT    30 STARTS. ATTEMPT NUMBER  1, TIME INCREMENT  1.000E-02
 
	SYMMETRIC NEW DIRECT SPARSE SOLVER RUNNING ON
 	1 HOST x 1 MPI RANK PER HOST x 4 THREADS PER RANK
        NUMBER OF EQUATIONS:  6342
        NUMBER OF RHS:        1
        NUMBER OF FLOPS:      1.258e+08
        SOLVER ELAPSED TIME:  81ms

               CONVERGENCE CHECKS FOR EQUILIBRIUM ITERATION     1


 AVERAGE FORCE                       35.3       TIME AVG. FORCE        18.2    
 LARGEST SCALED RESIDUAL FORCE      7.615E-11   AT NODE        742   DOF  3
   INSTANCE: PART-1-1                                                                        
  CORRESPONDING RESIDUAL FORCE      7.615E-11
 LARGEST INCREMENT OF DISP.        -9.949E-03   AT NODE        919   DOF  3
   INSTANCE: PART-1-1                                                                        
 LARGEST CORRECTION TO DISP.       -1.963E-16   AT NODE        852   DOF  3
   INSTANCE: PART-1-1                                                                        
          THE FORCE     EQUILIBRIUM RESPONSE WAS LINEAR IN THIS INCREMENT

 AVERAGE MOMENT                     2.598E+03   TIME AVG. MOMENT      1.341E+03
 LARGEST SCALED RESIDUAL MOMENT     2.028E-10   AT NODE        648   DOF  4
   INSTANCE: PART-1-1                                                                        
  CORRESPONDING RESIDUAL MOMENT     2.028E-10
 LARGEST INCREMENT OF ROTATION      1.141E-04   AT NODE        422   DOF  5
   INSTANCE: PART-1-1                                                                        
 LARGEST CORRECTION TO ROTATION    -6.729E-18   AT NODE        753   DOF  4
   INSTANCE: PART-1-1                                                                        
          THE MOMENT    EQUILIBRIUM RESPONSE WAS LINEAR IN THIS INCREMENT

 ITERATION SUMMARY FOR THE INCREMENT:   1 TOTAL ITERATIONS, OF WHICH
   0 ARE SEVERE DISCONTINUITY ITERATIONS AND  1 ARE EQUILIBRIUM ITERATIONS.

 TIME INCREMENT COMPLETED  1.000E-02,  FRACTION OF STEP COMPLETED  0.300    
 STEP TIME COMPLETED       0.300    ,  TOTAL TIME COMPLETED        0.300    


  INCREMENT    31 STARTS. ATTEMPT NUMBER  1, TIME INCREMENT  1.000E-02
 
	SYMMETRIC NEW DIRECT SPARSE SOLVER RUNNING ON
 	1 HOST x 1 MPI RANK PER HOST x 4 THREADS PER RANK
        NUMBER OF EQUATIONS:  6342
        NUMBER OF RHS:        1
        NUMBER OF FLOPS:      1.258e+08
        SOLVER ELAPSED TIME:  119ms

               CONVERGENCE CHECKS FOR EQUILIBRIUM ITERATION     1


 AVERAGE FORCE                       36.5       TIME AVG. FORCE        18.8    
 LARGEST SCALED RESIDUAL FORCE     -7.264E-11   AT NODE        568   DOF  3
   INSTANCE: PART-1-1                                                                        
  CORRESPONDING RESIDUAL FORCE     -7.264E-11
 LARGEST INCREMENT OF DISP.        -9.949E-03   AT NODE        919   DOF  3
   INSTANCE: PART-1-1                                                                        
 LARGEST CORRECTION TO DISP.       -2.169E-16   AT NODE        690   DOF  3
   INSTANCE: PART-1-1                                                                        
          THE FORCE     EQUILIBRIUM RESPONSE WAS LINEAR IN THIS INCREMENT

 AVERAGE MOMENT                     2.685E+03   TIME AVG. MOMENT      1.385E+03
 LARGEST SCALED RESIDUAL MOMENT    -1.714E-10   AT NODE        786   DOF  4
   INSTANCE: PART-1-1                                                                        
  CORRESPONDING RESIDUAL MOMENT    -1.714E-10
 LARGEST INCREMENT OF ROTATION      1.141E-04   AT NODE        422   DOF  5
   INSTANCE: PART-1-1                                                                        
 LARGEST CORRECTION TO ROTATION    -7.426E-18   AT NODE        642   DOF  5
   INSTANCE: PART-1-1                                                                        
          THE MOMENT    EQUILIBRIUM RESPONSE WAS LINEAR IN THIS INCREMENT

 ITERATION SUMMARY FOR THE INCREMENT:   1 TOTAL ITERATIONS, OF WHICH
   0 ARE SEVERE DISCONTINUITY ITERATIONS AND  1 ARE EQUILIBRIUM ITERATIONS.

 TIME INCREMENT COMPLETED  1.000E-02,  FRACTION OF STEP COMPLETED  0.310    
 STEP TIME COMPLETED       0.310    ,  TOTAL TIME COMPLETED        0.310    


  INCREMENT    32 STARTS. ATTEMPT NUMBER  1, TIME INCREMENT  1.000E-02
 
	SYMMETRIC NEW DIRECT SPARSE SOLVER RUNNING ON
 	1 HOST x 1 MPI RANK PER HOST x 4 THREADS PER RANK
        NUMBER OF EQUATIONS:  6342
        NUMBER OF RHS:        1
        NUMBER OF FLOPS:      1.258e+08
        SOLVER ELAPSED TIME:  46ms

               CONVERGENCE CHECKS FOR EQUILIBRIUM ITERATION     1


 AVERAGE FORCE                       37.7       TIME AVG. FORCE        19.4    
 LARGEST SCALED RESIDUAL FORCE     -7.628E-11   AT NODE        924   DOF  3
   INSTANCE: PART-1-1                                                                        
  CORRESPONDING RESIDUAL FORCE     -7.628E-11
 LARGEST INCREMENT OF DISP.        -9.949E-03   AT NODE        919   DOF  3
   INSTANCE: PART-1-1                                                                        
 LARGEST CORRECTION TO DISP.       -2.007E-16   AT NODE        466   DOF  3
   INSTANCE: PART-1-1                                                                        
          THE FORCE     EQUILIBRIUM RESPONSE WAS LINEAR IN THIS INCREMENT

 AVERAGE MOMENT                     2.771E+03   TIME AVG. MOMENT      1.428E+03
 LARGEST SCALED RESIDUAL MOMENT    -1.889E-10   AT NODE       1043   DOF  5
   INSTANCE: PART-1-1                                                                        
  CORRESPONDING RESIDUAL MOMENT    -1.889E-10
 LARGEST INCREMENT OF ROTATION      1.141E-04   AT NODE        422   DOF  5
   INSTANCE: PART-1-1                                                                        
 LARGEST CORRECTION TO ROTATION     6.627E-18   AT NODE         67   DOF  5
   INSTANCE: PART-1-1                                                                        
          THE MOMENT    EQUILIBRIUM RESPONSE WAS LINEAR IN THIS INCREMENT

 ITERATION SUMMARY FOR THE INCREMENT:   1 TOTAL ITERATIONS, OF WHICH
   0 ARE SEVERE DISCONTINUITY ITERATIONS AND  1 ARE EQUILIBRIUM ITERATIONS.

 TIME INCREMENT COMPLETED  1.000E-02,  FRACTION OF STEP COMPLETED  0.320    
 STEP TIME COMPLETED       0.320    ,  TOTAL TIME COMPLETED        0.320    


  INCREMENT    33 STARTS. ATTEMPT NUMBER  1, TIME INCREMENT  1.000E-02
 
	SYMMETRIC NEW DIRECT SPARSE SOLVER RUNNING ON
 	1 HOST x 1 MPI RANK PER HOST x 4 THREADS PER RANK
        NUMBER OF EQUATIONS:  6342
        NUMBER OF RHS:        1
        NUMBER OF FLOPS:      1.258e+08
        SOLVER ELAPSED TIME:  49ms

               CONVERGENCE CHECKS FOR EQUILIBRIUM ITERATION     1


 AVERAGE FORCE                       38.9       TIME AVG. FORCE        20.0    
 LARGEST SCALED RESIDUAL FORCE     -7.390E-11   AT NODE        823   DOF  3
   INSTANCE: PART-1-1                                                                        
  CORRESPONDING RESIDUAL FORCE     -7.390E-11
 LARGEST INCREMENT OF DISP.        -9.949E-03   AT NODE        919   DOF  3
   INSTANCE: PART-1-1                                                                        
 LARGEST CORRECTION TO DISP.        2.531E-16   AT NODE        850   DOF  3
   INSTANCE: PART-1-1                                                                        
          THE FORCE     EQUILIBRIUM RESPONSE WAS LINEAR IN THIS INCREMENT

 AVERAGE MOMENT                     2.858E+03   TIME AVG. MOMENT      1.471E+03
 LARGEST SCALED RESIDUAL MOMENT     1.671E-10   AT NODE        223   DOF  4
   INSTANCE: PART-1-1                                                                        
  CORRESPONDING RESIDUAL MOMENT     1.671E-10
 LARGEST INCREMENT OF ROTATION      1.141E-04   AT NODE        422   DOF  5
   INSTANCE: PART-1-1                                                                        
 LARGEST CORRECTION TO ROTATION    -8.372E-18   AT NODE         67   DOF  5
   INSTANCE: PART-1-1                                                                        
          THE MOMENT    EQUILIBRIUM RESPONSE WAS LINEAR IN THIS INCREMENT

 ITERATION SUMMARY FOR THE INCREMENT:   1 TOTAL ITERATIONS, OF WHICH
   0 ARE SEVERE DISCONTINUITY ITERATIONS AND  1 ARE EQUILIBRIUM ITERATIONS.

 TIME INCREMENT COMPLETED  1.000E-02,  FRACTION OF STEP COMPLETED  0.330    
 STEP TIME COMPLETED       0.330    ,  TOTAL TIME COMPLETED        0.330    


  INCREMENT    34 STARTS. ATTEMPT NUMBER  1, TIME INCREMENT  1.000E-02
 
	SYMMETRIC NEW DIRECT SPARSE SOLVER RUNNING ON
 	1 HOST x 1 MPI RANK PER HOST x 4 THREADS PER RANK
        NUMBER OF EQUATIONS:  6342
        NUMBER OF RHS:        1
        NUMBER OF FLOPS:      1.258e+08
        SOLVER ELAPSED TIME:  37ms

               CONVERGENCE CHECKS FOR EQUILIBRIUM ITERATION     1


 AVERAGE FORCE                       40.0       TIME AVG. FORCE        20.6    
 LARGEST SCALED RESIDUAL FORCE      6.790E-11   AT NODE       1047   DOF  3
   INSTANCE: PART-1-1                                                                        
  CORRESPONDING RESIDUAL FORCE      6.790E-11
 LARGEST INCREMENT OF DISP.        -9.949E-03   AT NODE        919   DOF  3
   INSTANCE: PART-1-1                                                                        
 LARGEST CORRECTION TO DISP.        3.111E-16   AT NODE        457   DOF  3
   INSTANCE: PART-1-1                                                                        
          THE FORCE     EQUILIBRIUM RESPONSE WAS LINEAR IN THIS INCREMENT

 AVERAGE MOMENT                     2.945E+03   TIME AVG. MOMENT      1.515E+03
 LARGEST SCALED RESIDUAL MOMENT     1.751E-10   AT NODE        555   DOF  4
   INSTANCE: PART-1-1                                                                        
  CORRESPONDING RESIDUAL MOMENT     1.751E-10
 LARGEST INCREMENT OF ROTATION      1.141E-04   AT NODE        422   DOF  5
   INSTANCE: PART-1-1                                                                        
 LARGEST CORRECTION TO ROTATION     8.336E-18   AT NODE        652   DOF  4
   INSTANCE: PART-1-1                                                                        
          THE MOMENT    EQUILIBRIUM RESPONSE WAS LINEAR IN THIS INCREMENT

 ITERATION SUMMARY FOR THE INCREMENT:   1 TOTAL ITERATIONS, OF WHICH
   0 ARE SEVERE DISCONTINUITY ITERATIONS AND  1 ARE EQUILIBRIUM ITERATIONS.

 TIME INCREMENT COMPLETED  1.000E-02,  FRACTION OF STEP COMPLETED  0.340    
 STEP TIME COMPLETED       0.340    ,  TOTAL TIME COMPLETED        0.340    


  INCREMENT    35 STARTS. ATTEMPT NUMBER  1, TIME INCREMENT  1.000E-02
 
	SYMMETRIC NEW DIRECT SPARSE SOLVER RUNNING ON
 	1 HOST x 1 MPI RANK PER HOST x 4 THREADS PER RANK
        NUMBER OF EQUATIONS:  6342
        NUMBER OF RHS:        1
        NUMBER OF FLOPS:      1.258e+08
        SOLVER ELAPSED TIME:  47ms

               CONVERGENCE CHECKS FOR EQUILIBRIUM ITERATION     1


 AVERAGE FORCE                       41.2       TIME AVG. FORCE        21.2    
 LARGEST SCALED RESIDUAL FORCE      7.688E-11   AT NODE        472   DOF  3
   INSTANCE: PART-1-1                                                                        
  CORRESPONDING RESIDUAL FORCE      7.688E-11
 LARGEST INCREMENT OF DISP.        -9.949E-03   AT NODE        919   DOF  3
   INSTANCE: PART-1-1                                                                        
 LARGEST CORRECTION TO DISP.       -2.872E-16   AT NODE        472   DOF  3
   INSTANCE: PART-1-1                                                                        
          THE FORCE     EQUILIBRIUM RESPONSE WAS LINEAR IN THIS INCREMENT

 AVERAGE MOMENT                     3.031E+03   TIME AVG. MOMENT      1.558E+03
 LARGEST SCALED RESIDUAL MOMENT     2.001E-10   AT NODE        452   DOF  4
   INSTANCE: PART-1-1                                                                        
  CORRESPONDING RESIDUAL MOMENT     2.001E-10
 LARGEST INCREMENT OF ROTATION      1.141E-04   AT NODE        422   DOF  5
   INSTANCE: PART-1-1                                                                        
 LARGEST CORRECTION TO ROTATION     8.606E-18   AT NODE       1014   DOF  4
   INSTANCE: PART-1-1                                                                        
          THE MOMENT    EQUILIBRIUM RESPONSE WAS LINEAR IN THIS INCREMENT

[...]
        NUMBER OF RHS:        1
        NUMBER OF FLOPS:      1.258e+08
        SOLVER ELAPSED TIME:  3ms

               CONVERGENCE CHECKS FOR EQUILIBRIUM ITERATION     1


 AVERAGE FORCE                       108.       TIME AVG. FORCE        54.8    
 LARGEST SCALED RESIDUAL FORCE     -1.412E-10   AT NODE        636   DOF  3
   INSTANCE: PART-1-1                                                                        
  CORRESPONDING RESIDUAL FORCE     -1.412E-10
 LARGEST INCREMENT OF DISP.        -9.949E-03   AT NODE        919   DOF  3
   INSTANCE: PART-1-1                                                                        
 LARGEST CORRECTION TO DISP.        5.124E-16   AT NODE        811   DOF  3
   INSTANCE: PART-1-1                                                                        
          THE FORCE     EQUILIBRIUM RESPONSE WAS LINEAR IN THIS INCREMENT

 AVERAGE MOMENT                     7.967E+03   TIME AVG. MOMENT      4.027E+03
 LARGEST SCALED RESIDUAL MOMENT     3.511E-10   AT NODE        682   DOF  4
   INSTANCE: PART-1-1                                                                        
  CORRESPONDING RESIDUAL MOMENT     3.511E-10
 LARGEST INCREMENT OF ROTATION      1.141E-04   AT NODE        422   DOF  5
   INSTANCE: PART-1-1                                                                        
 LARGEST CORRECTION TO ROTATION     1.583E-17   AT NODE         66   DOF  4
   INSTANCE: PART-1-1                                                                        
          THE MOMENT    EQUILIBRIUM RESPONSE WAS LINEAR IN THIS INCREMENT

 ITERATION SUMMARY FOR THE INCREMENT:   1 TOTAL ITERATIONS, OF WHICH
   0 ARE SEVERE DISCONTINUITY ITERATIONS AND  1 ARE EQUILIBRIUM ITERATIONS.

 TIME INCREMENT COMPLETED  1.000E-02,  FRACTION OF STEP COMPLETED  0.920    
 STEP TIME COMPLETED       0.920    ,  TOTAL TIME COMPLETED        0.920    


  INCREMENT    93 STARTS. ATTEMPT NUMBER  1, TIME INCREMENT  1.000E-02
 
	SYMMETRIC NEW DIRECT SPARSE SOLVER RUNNING ON
 	1 HOST x 1 MPI RANK PER HOST x 4 THREADS PER RANK
        NUMBER OF EQUATIONS:  6342
        NUMBER OF RHS:        1
        NUMBER OF FLOPS:      1.258e+08
        SOLVER ELAPSED TIME:  37ms

               CONVERGENCE CHECKS FOR EQUILIBRIUM ITERATION     1


 AVERAGE FORCE                       110.       TIME AVG. FORCE        55.4    
 LARGEST SCALED RESIDUAL FORCE     -1.522E-10   AT NODE        853   DOF  3
   INSTANCE: PART-1-1                                                                        
  CORRESPONDING RESIDUAL FORCE     -1.522E-10
 LARGEST INCREMENT OF DISP.        -9.949E-03   AT NODE        919   DOF  3
   INSTANCE: PART-1-1                                                                        
 LARGEST CORRECTION TO DISP.       -4.824E-16   AT NODE       1040   DOF  3
   INSTANCE: PART-1-1                                                                        
          THE FORCE     EQUILIBRIUM RESPONSE WAS LINEAR IN THIS INCREMENT

 AVERAGE MOMENT                     8.054E+03   TIME AVG. MOMENT      4.070E+03
 LARGEST SCALED RESIDUAL MOMENT    -4.884E-10   AT NODE        898   DOF  4
   INSTANCE: PART-1-1                                                                        
  CORRESPONDING RESIDUAL MOMENT    -4.884E-10
 LARGEST INCREMENT OF ROTATION      1.141E-04   AT NODE        422   DOF  5
   INSTANCE: PART-1-1                                                                        
 LARGEST CORRECTION TO ROTATION    -1.596E-17   AT NODE        789   DOF  4
   INSTANCE: PART-1-1                                                                        
          THE MOMENT    EQUILIBRIUM RESPONSE WAS LINEAR IN THIS INCREMENT

 ITERATION SUMMARY FOR THE INCREMENT:   1 TOTAL ITERATIONS, OF WHICH
   0 ARE SEVERE DISCONTINUITY ITERATIONS AND  1 ARE EQUILIBRIUM ITERATIONS.

 TIME INCREMENT COMPLETED  1.000E-02,  FRACTION OF STEP COMPLETED  0.930    
 STEP TIME COMPLETED       0.930    ,  TOTAL TIME COMPLETED        0.930    


  INCREMENT    94 STARTS. ATTEMPT NUMBER  1, TIME INCREMENT  1.000E-02
 
	SYMMETRIC NEW DIRECT SPARSE SOLVER RUNNING ON
 	1 HOST x 1 MPI RANK PER HOST x 4 THREADS PER RANK
        NUMBER OF EQUATIONS:  6342
        NUMBER OF RHS:        1
        NUMBER OF FLOPS:      1.258e+08
        SOLVER ELAPSED TIME:  38ms

               CONVERGENCE CHECKS FOR EQUILIBRIUM ITERATION     1


 AVERAGE FORCE                       111.       TIME AVG. FORCE        55.9    
 LARGEST SCALED RESIDUAL FORCE     -1.577E-10   AT NODE        526   DOF  3
   INSTANCE: PART-1-1                                                                        
  CORRESPONDING RESIDUAL FORCE     -1.577E-10
 LARGEST INCREMENT OF DISP.        -9.949E-03   AT NODE        919   DOF  3
   INSTANCE: PART-1-1                                                                        
 LARGEST CORRECTION TO DISP.       -6.449E-16   AT NODE        933   DOF  3
   INSTANCE: PART-1-1                                                                        
          THE FORCE     EQUILIBRIUM RESPONSE WAS LINEAR IN THIS INCREMENT

 AVERAGE MOMENT                     8.141E+03   TIME AVG. MOMENT      4.113E+03
 LARGEST SCALED RESIDUAL MOMENT     4.075E-10   AT NODE        831   DOF  5
   INSTANCE: PART-1-1                                                                        
  CORRESPONDING RESIDUAL MOMENT     4.075E-10
 LARGEST INCREMENT OF ROTATION      1.141E-04   AT NODE        422   DOF  5
   INSTANCE: PART-1-1                                                                        
 LARGEST CORRECTION TO ROTATION    -1.937E-17   AT NODE       1013   DOF  4
   INSTANCE: PART-1-1                                                                        
          THE MOMENT    EQUILIBRIUM RESPONSE WAS LINEAR IN THIS INCREMENT

 ITERATION SUMMARY FOR THE INCREMENT:   1 TOTAL ITERATIONS, OF WHICH
   0 ARE SEVERE DISCONTINUITY ITERATIONS AND  1 ARE EQUILIBRIUM ITERATIONS.

 TIME INCREMENT COMPLETED  1.000E-02,  FRACTION OF STEP COMPLETED  0.940    
 STEP TIME COMPLETED       0.940    ,  TOTAL TIME COMPLETED        0.940    


  INCREMENT    95 STARTS. ATTEMPT NUMBER  1, TIME INCREMENT  1.000E-02
 
	SYMMETRIC NEW DIRECT SPARSE SOLVER RUNNING ON
 	1 HOST x 1 MPI RANK PER HOST x 4 THREADS PER RANK
        NUMBER OF EQUATIONS:  6342
        NUMBER OF RHS:        1
        NUMBER OF FLOPS:      1.258e+08
        SOLVER ELAPSED TIME:  36ms

               CONVERGENCE CHECKS FOR EQUILIBRIUM ITERATION     1


 AVERAGE FORCE                       112.       TIME AVG. FORCE        56.5    
 LARGEST SCALED RESIDUAL FORCE     -1.531E-10   AT NODE        686   DOF  3
   INSTANCE: PART-1-1                                                                        
  CORRESPONDING RESIDUAL FORCE     -1.531E-10
 LARGEST INCREMENT OF DISP.        -9.949E-03   AT NODE        919   DOF  3
   INSTANCE: PART-1-1                                                                        
 LARGEST CORRECTION TO DISP.        5.253E-16   AT NODE       1006   DOF  3
   INSTANCE: PART-1-1                                                                        
          THE FORCE     EQUILIBRIUM RESPONSE WAS LINEAR IN THIS INCREMENT

 AVERAGE MOMENT                     8.227E+03   TIME AVG. MOMENT      4.157E+03
 LARGEST SCALED RESIDUAL MOMENT    -3.311E-10   AT NODE        613   DOF  5
   INSTANCE: PART-1-1                                                                        
  CORRESPONDING RESIDUAL MOMENT    -3.311E-10
 LARGEST INCREMENT OF ROTATION      1.141E-04   AT NODE        422   DOF  5
   INSTANCE: PART-1-1                                                                        
 LARGEST CORRECTION TO ROTATION     1.575E-17   AT NODE        801   DOF  5
   INSTANCE: PART-1-1                                                                        
          THE MOMENT    EQUILIBRIUM RESPONSE WAS LINEAR IN THIS INCREMENT

 ITERATION SUMMARY FOR THE INCREMENT:   1 TOTAL ITERATIONS, OF WHICH
   0 ARE SEVERE DISCONTINUITY ITERATIONS AND  1 ARE EQUILIBRIUM ITERATIONS.

 TIME INCREMENT COMPLETED  1.000E-02,  FRACTION OF STEP COMPLETED  0.950    
 STEP TIME COMPLETED       0.950    ,  TOTAL TIME COMPLETED        0.950    


  INCREMENT    96 STARTS. ATTEMPT NUMBER  1, TIME INCREMENT  1.000E-02
 
	SYMMETRIC NEW DIRECT SPARSE SOLVER RUNNING ON
 	1 HOST x 1 MPI RANK PER HOST x 4 THREADS PER RANK
        NUMBER OF EQUATIONS:  6342
        NUMBER OF RHS:        1
        NUMBER OF FLOPS:      1.258e+08
        SOLVER ELAPSED TIME:  60ms

               CONVERGENCE CHECKS FOR EQUILIBRIUM ITERATION     1


 AVERAGE FORCE                       113.       TIME AVG. FORCE        57.1    
 LARGEST SCALED RESIDUAL FORCE     -1.810E-10   AT NODE        240   DOF  3
   INSTANCE: PART-1-1                                                                        
  CORRESPONDING RESIDUAL FORCE     -1.810E-10
 LARGEST INCREMENT OF DISP.        -9.949E-03   AT NODE        919   DOF  3
   INSTANCE: PART-1-1                                                                        
 LARGEST CORRECTION TO DISP.        6.291E-16   AT NODE        120   DOF  3
   INSTANCE: PART-1-1                                                                        
          THE FORCE     EQUILIBRIUM RESPONSE WAS LINEAR IN THIS INCREMENT

 AVERAGE MOMENT                     8.314E+03   TIME AVG. MOMENT      4.200E+03
 LARGEST SCALED RESIDUAL MOMENT    -3.905E-10   AT NODE        117   DOF  4
   INSTANCE: PART-1-1                                                                        
  CORRESPONDING RESIDUAL MOMENT    -3.905E-10
 LARGEST INCREMENT OF ROTATION      1.141E-04   AT NODE        422   DOF  5
   INSTANCE: PART-1-1                                                                        
 LARGEST CORRECTION TO ROTATION     1.861E-17   AT NODE        719   DOF  4
   INSTANCE: PART-1-1                                                                        
          THE MOMENT    EQUILIBRIUM RESPONSE WAS LINEAR IN THIS INCREMENT

 ITERATION SUMMARY FOR THE INCREMENT:   1 TOTAL ITERATIONS, OF WHICH
   0 ARE SEVERE DISCONTINUITY ITERATIONS AND  1 ARE EQUILIBRIUM ITERATIONS.

 TIME INCREMENT COMPLETED  1.000E-02,  FRACTION OF STEP COMPLETED  0.960    
 STEP TIME COMPLETED       0.960    ,  TOTAL TIME COMPLETED        0.960    


  INCREMENT    97 STARTS. ATTEMPT NUMBER  1, TIME INCREMENT  1.000E-02
 
	SYMMETRIC NEW DIRECT SPARSE SOLVER RUNNING ON
 	1 HOST x 1 MPI RANK PER HOST x 4 THREADS PER RANK
        NUMBER OF EQUATIONS:  6342
        NUMBER OF RHS:        1
        NUMBER OF FLOPS:      1.258e+08
        SOLVER ELAPSED TIME:  34ms

               CONVERGENCE CHECKS FOR EQUILIBRIUM ITERATION     1


 AVERAGE FORCE                       114.       TIME AVG. FORCE        57.7    
 LARGEST SCALED RESIDUAL FORCE     -1.617E-10   AT NODE        230   DOF  3
   INSTANCE: PART-1-1                                                                        
  CORRESPONDING RESIDUAL FORCE     -1.617E-10
 LARGEST INCREMENT OF DISP.        -9.949E-03   AT NODE        919   DOF  3
   INSTANCE: PART-1-1                                                                        
 LARGEST CORRECTION TO DISP.       -5.461E-16   AT NODE        115   DOF  3
   INSTANCE: PART-1-1                                                                        
          THE FORCE     EQUILIBRIUM RESPONSE WAS LINEAR IN THIS INCREMENT

 AVERAGE MOMENT                     8.401E+03   TIME AVG. MOMENT      4.243E+03
 LARGEST SCALED RESIDUAL MOMENT     5.039E-10   AT NODE        924   DOF  4
   INSTANCE: PART-1-1                                                                        
  CORRESPONDING RESIDUAL MOMENT     5.039E-10
 LARGEST INCREMENT OF ROTATION      1.141E-04   AT NODE        422   DOF  5
   INSTANCE: PART-1-1                                                                        
 LARGEST CORRECTION TO ROTATION    -1.777E-17   AT NODE        838   DOF  4
   INSTANCE: PART-1-1                                                                        
          THE MOMENT    EQUILIBRIUM RESPONSE WAS LINEAR IN THIS INCREMENT

 ITERATION SUMMARY FOR THE INCREMENT:   1 TOTAL ITERATIONS, OF WHICH
   0 ARE SEVERE DISCONTINUITY ITERATIONS AND  1 ARE EQUILIBRIUM ITERATIONS.

 TIME INCREMENT COMPLETED  1.000E-02,  FRACTION OF STEP COMPLETED  0.970    
 STEP TIME COMPLETED       0.970    ,  TOTAL TIME COMPLETED        0.970    


  INCREMENT    98 STARTS. ATTEMPT NUMBER  1, TIME INCREMENT  1.000E-02
 
	SYMMETRIC NEW DIRECT SPARSE SOLVER RUNNING ON
 	1 HOST x 1 MPI RANK PER HOST x 4 THREADS PER RANK
        NUMBER OF EQUATIONS:  6342
        NUMBER OF RHS:        1
        NUMBER OF FLOPS:      1.258e+08
        SOLVER ELAPSED TIME:  51ms

               CONVERGENCE CHECKS FOR EQUILIBRIUM ITERATION     1


 AVERAGE FORCE                       115.       TIME AVG. FORCE        58.3    
 LARGEST SCALED RESIDUAL FORCE     -1.529E-10   AT NODE        931   DOF  3
   INSTANCE: PART-1-1                                                                        
  CORRESPONDING RESIDUAL FORCE     -1.529E-10
 LARGEST INCREMENT OF DISP.        -9.949E-03   AT NODE        919   DOF  3
   INSTANCE: PART-1-1                                                                        
 LARGEST CORRECTION TO DISP.       -5.845E-16   AT NODE        230   DOF  3
   INSTANCE: PART-1-1                                                                        
          THE FORCE     EQUILIBRIUM RESPONSE WAS LINEAR IN THIS INCREMENT

 AVERAGE MOMENT                     8.487E+03   TIME AVG. MOMENT      4.287E+03
 LARGEST SCALED RESIDUAL MOMENT    -3.620E-10   AT NODE        382   DOF  4
   INSTANCE: PART-1-1                                                                        
  CORRESPONDING RESIDUAL MOMENT    -3.620E-10
 LARGEST INCREMENT OF ROTATION      1.141E-04   AT NODE        422   DOF  5
   INSTANCE: PART-1-1                                                                        
 LARGEST CORRECTION TO ROTATION     1.973E-17   AT NODE        901   DOF  4
   INSTANCE: PART-1-1                                                                        
          THE MOMENT    EQUILIBRIUM RESPONSE WAS LINEAR IN THIS INCREMENT

 ITERATION SUMMARY FOR THE INCREMENT:   1 TOTAL ITERATIONS, OF WHICH
   0 ARE SEVERE DISCONTINUITY ITERATIONS AND  1 ARE EQUILIBRIUM ITERATIONS.

 TIME INCREMENT COMPLETED  1.000E-02,  FRACTION OF STEP COMPLETED  0.980    
 STEP TIME COMPLETED       0.980    ,  TOTAL TIME COMPLETED        0.980    


  INCREMENT    99 STARTS. ATTEMPT NUMBER  1, TIME INCREMENT  1.000E-02
 
	SYMMETRIC NEW DIRECT SPARSE SOLVER RUNNING ON
 	1 HOST x 1 MPI RANK PER HOST x 4 THREADS PER RANK
        NUMBER OF EQUATIONS:  6342
        NUMBER OF RHS:        1
        NUMBER OF FLOPS:      1.258e+08
        SOLVER ELAPSED TIME:  53ms

               CONVERGENCE CHECKS FOR EQUILIBRIUM ITERATION     1


 AVERAGE FORCE                       117.       TIME AVG. FORCE        58.9    
 LARGEST SCALED RESIDUAL FORCE     -1.716E-10   AT NODE        806   DOF  3
   INSTANCE: PART-1-1                                                                        
  CORRESPONDING RESIDUAL FORCE     -1.716E-10
 LARGEST INCREMENT OF DISP.        -9.949E-03   AT NODE        919   DOF  3
   INSTANCE: PART-1-1                                                                        
 LARGEST CORRECTION TO DISP.        5.231E-16   AT NODE        230   DOF  3
   INSTANCE: PART-1-1                                                                        
          THE FORCE     EQUILIBRIUM RESPONSE WAS LINEAR IN THIS INCREMENT

 AVERAGE MOMENT                     8.574E+03   TIME AVG. MOMENT      4.330E+03
 LARGEST SCALED RESIDUAL MOMENT    -4.566E-10   AT NODE        898   DOF  4
   INSTANCE: PART-1-1                                                                        
  CORRESPONDING RESIDUAL MOMENT    -4.566E-10
 LARGEST INCREMENT OF ROTATION      1.141E-04   AT NODE        422   DOF  5
   INSTANCE: PART-1-1                                                                        
 LARGEST CORRECTION TO ROTATION    -1.836E-17   AT NODE        901   DOF  4
   INSTANCE: PART-1-1                                                                        
          THE MOMENT    EQUILIBRIUM RESPONSE WAS LINEAR IN THIS INCREMENT

 ITERATION SUMMARY FOR THE INCREMENT:   1 TOTAL ITERATIONS, OF WHICH
   0 ARE SEVERE DISCONTINUITY ITERATIONS AND  1 ARE EQUILIBRIUM ITERATIONS.

 TIME INCREMENT COMPLETED  1.000E-02,  FRACTION OF STEP COMPLETED  0.990    
 STEP TIME COMPLETED       0.990    ,  TOTAL TIME COMPLETED        0.990    


  INCREMENT   100 STARTS. ATTEMPT NUMBER  1, TIME INCREMENT  1.000E-02
 
	SYMMETRIC NEW DIRECT SPARSE SOLVER RUNNING ON
 	1 HOST x 1 MPI RANK PER HOST x 4 THREADS PER RANK
        NUMBER OF EQUATIONS:  6342
        NUMBER OF RHS:        1
        NUMBER OF FLOPS:      1.258e+08
        SOLVER ELAPSED TIME:  36ms

               CONVERGENCE CHECKS FOR EQUILIBRIUM ITERATION     1


 AVERAGE FORCE                       118.       TIME AVG. FORCE        59.5    
 LARGEST SCALED RESIDUAL FORCE     -1.417E-10   AT NODE        525   DOF  3
   INSTANCE: PART-1-1                                                                        
  CORRESPONDING RESIDUAL FORCE     -1.417E-10
 LARGEST INCREMENT OF DISP.        -9.949E-03   AT NODE        919   DOF  3
   INSTANCE: PART-1-1                                                                        
 LARGEST CORRECTION TO DISP.        6.115E-16   AT NODE       1025   DOF  3
   INSTANCE: PART-1-1                                                                        
          THE FORCE     EQUILIBRIUM RESPONSE WAS LINEAR IN THIS INCREMENT

 AVERAGE MOMENT                     8.660E+03   TIME AVG. MOMENT      4.373E+03
 LARGEST SCALED RESIDUAL MOMENT     4.707E-10   AT NODE        232   DOF  4
   INSTANCE: PART-1-1                                                                        
  CORRESPONDING RESIDUAL MOMENT     4.707E-10
 LARGEST INCREMENT OF ROTATION      1.141E-04   AT NODE        422   DOF  5
   INSTANCE: PART-1-1                                                                        
 LARGEST CORRECTION TO ROTATION     1.767E-17   AT NODE         68   DOF  4
   INSTANCE: PART-1-1                                                                        
          THE MOMENT    EQUILIBRIUM RESPONSE WAS LINEAR IN THIS INCREMENT

 ITERATION SUMMARY FOR THE INCREMENT:   1 TOTAL ITERATIONS, OF WHICH
   0 ARE SEVERE DISCONTINUITY ITERATIONS AND  1 ARE EQUILIBRIUM ITERATIONS.

 TIME INCREMENT COMPLETED  1.000E-02,  FRACTION OF STEP COMPLETED   1.00    
 STEP TIME COMPLETED        1.00    ,  TOTAL TIME COMPLETED         1.00    


          THE ANALYSIS HAS BEEN COMPLETED



     ANALYSIS SUMMARY:
     TOTAL OF        100  INCREMENTS
                       0  CUTBACKS IN AUTOMATIC INCREMENTATION
                     100  ITERATIONS INCLUDING CONTACT ITERATIONS IF PRESENT
                     100  PASSES THROUGH THE EQUATION SOLVER OF WHICH 
                       1  INVOLVE MATRIX DECOMPOSITION, INCLUDING
                       0  DECOMPOSITION(S) OF THE MASS MATRIX
                       1  REORDERING OF EQUATIONS TO MINIMIZE WAVEFRONT
                       0  ADDITIONAL RESIDUAL EVALUATIONS FOR LINE SEARCHES
                       0  ADDITIONAL OPERATOR EVALUATIONS FOR LINE SEARCHES
                       0  WARNING MESSAGES DURING USER INPUT PROCESSING
                       0  WARNING MESSAGES DURING ANALYSIS
                       0  ANALYSIS WARNINGS ARE NUMERICAL PROBLEM MESSAGES
                       0  ANALYSIS WARNINGS ARE NEGATIVE EIGENVALUE MESSAGES
                       0  ERROR MESSAGES



     JOB TIME SUMMARY
       USER TIME (SEC)      =      19.    
       SYSTEM TIME (SEC)    =      4.0    
       TOTAL CPU TIME (SEC) =      23.    
       WALLCLOCK TIME (SEC) =           24
       MEMORY PEAK (GB)     =            0
