*Heading
** Job name: mb_ss_partition Model name: Model-1
** Generated by: Abaqus/CAE 2023
*Preprint, echo=NO, model=NO, history=NO, contact=NO
**
** PARTS
**
*Part, name=Part-1
*Node
      1,   98.8499985,   168.050003,         7.75
      2,   98.8499985,   53.1500015,         7.75
      3,       213.75,   53.1500015,         7.75
      4,       213.75,   168.050003,         7.75
      5,           0.,   221.199997,         7.75
      6,           0.,           0.,         7.75
      7,   312.600006,           0.,         7.75
      8,   312.600006,   221.199997,         7.75
      9,   98.8499985,   157.604538,         7.75
     10,   98.8499985,   147.159088,         7.75
     11,   98.8499985,   136.713638,         7.75
     12,   98.8499985,   126.268181,         7.75
     13,   98.8499985,   115.822731,         7.75
     14,   98.8499985,   105.377274,         7.75
     15,   98.8499985,   94.9318161,         7.75
     16,   98.8499985,   84.4863663,         7.75
     17,   98.8499985,   74.0409088,         7.75
     18,   98.8499985,   63.5954552,         7.75
     19,   109.295456,   53.1500015,         7.75
     20,   119.740906,   53.1500015,         7.75
** ... 782 like lines cut
*Element, type=S4R5
  1,  48, 151,   9,   1
  2, 151, 152,  10,   9
  3, 152, 153,  11,  10
  4, 153, 154,  12,  11
  5, 154, 155,  13,  12
  6, 155, 156,  14,  13
  7, 156, 157,  15,  14
  8, 157, 158,  16,  15
  9, 158, 159,  17,  16
 10, 159, 160,  18,  17
 11, 160,  19,   2,  18
 12,  47, 161, 151,  48
 13, 161, 162, 152, 151
 14, 162, 163, 153, 152
 15, 163, 164, 154, 153
 16, 164, 165, 155, 154
 17, 165, 166, 156, 155
 18, 166, 167, 157, 156
 19, 167, 168, 158, 157
 20, 168, 169, 159, 158
** ... 722 like lines cut
*Element, type=S3
122, 380, 372, 560
123, 415, 549, 559
124, 627, 624, 694
125, 742, 739, 707
126, 585, 584, 660
127, 622, 626, 693
128, 645, 622, 708
129, 630, 631, 704
130, 688, 683, 739
131, 754, 769, 703
132, 674, 430, 777
133, 786, 567, 794
*Nset, nset=Set-2, generate
   1,  802,    1
*Elset, elset=Set-2, generate
   1,  754,    1
** Section: shell_5mm
*Shell Section, elset=Set-2, material=alu
5., 5
*End Part
**  
**
** ASSEMBLY
**
*Assembly, name=Assembly
**  
*Instance, name=Part-1-1, part=Part-1
*End Instance
**  
*Nset, nset=Set-1, instance=Part-1-1
   5,   6,   7,   8,  49,  50,  51,  52,  53,  54,  55,  56,  57,  58,  59,  60
  61,  62,  63,  64,  65,  66,  67,  68,  69, 100, 101, 102, 103, 104, 105, 106
 107, 108, 109, 110, 111, 112, 113, 114, 115, 116, 117, 118, 119, 120
*Elset, elset=Set-1, instance=Part-1-1
 142, 144, 145, 147, 148, 149, 150, 151, 152, 153, 154, 155, 157, 158, 159, 160
 161, 185, 186, 188, 189, 191, 193, 194, 195, 196, 197, 198, 199, 200, 201, 202
 203, 266, 270, 271, 272, 275, 282, 283, 287, 295, 307, 405
*Nset, nset=Set-2, instance=Part-1-1
 7,
*Nset, nset=Set-3, instance=Part-1-1
 6,
*Elset, elset=_Surf-1_SNEG, internal, instance=Part-1-1, generate
   1,  754,    1
*Surface, type=ELEMENT, name=Surf-1
_Surf-1_SNEG, SNEG
*Elset, elset=_Surf-2_SNEG, internal, instance=Part-1-1, generate
   1,  754,    1
*Surface, type=ELEMENT, name=Surf-2
_Surf-2_SNEG, SNEG
*Elset, elset=_Surf-3_SNEG, internal, instance=Part-1-1, generate
   1,  121,    1
*Surface, type=ELEMENT, name=Surf-3
_Surf-3_SNEG, SNEG
*End Assembly
** 
** MATERIALS
** 
*Material, name=alu
*Elastic
72000., 0.333
** 
** BOUNDARY CONDITIONS
** 
** Name: BC-2 Type: Displacement/Rotation
*Boundary
Set-2, 1, 1
Set-2, 2, 2
** Name: reduce_rotation Type: Displacement/Rotation
*Boundary
Set-3, 1, 1
** Name: simple_supports Type: Displacement/Rotation
*Boundary
Set-1, 3, 3
** ----------------------------------------------------------------
** 
** STEP: Step-3
** 
*Step, name=Step-3, nlgeom=NO, perturbation
*Static
** 
** LOADS
** 
** Name: Load-3   Type: Pressure
*Dsload
Surf-3, P, 2.
** 
** OUTPUT REQUESTS
** 
** 
** FIELD OUTPUT: F-Output-2-Copy
** 
*Output, field
*Node Output
CF, RF, U
*Element Output, directions=YES
LE, S, SF
** 
** HISTORY OUTPUT: H-Output-2-Copy
** 
*Output, history, variable=PRESELECT
*End Step
** ----------------------------------------------------------------
** 
** STEP: linear_pertubation
** 
*Step, name=linear_pertubation, nlgeom=NO, perturbation
*Static
** 
** LOADS
** 
** Name: pressure   Type: Pressure
*Dsload
Surf-1, P, 0.0005
** 
** OUTPUT REQUESTS
** 
** 
** FIELD OUTPUT: F-Output-2, F-Output-2-Copy
** 
*Output, field
*Node Output
CF, RF, U
*Element Output, directions=YES
LE, S, SF
** 
** HISTORY OUTPUT: H-Output-2, H-Output-2-Copy
** 
*Output, history, variable=PRESELECT
*End Step
** ----------------------------------------------------------------
** 
** STEP: load
** 
*Step, name=load, nlgeom=NO
*Static
1., 1., 1e-05, 1.
** 
** OUTPUT REQUESTS
** 
*Restart, write, frequency=0
** 
** FIELD OUTPUT: F-Output-1
** 
*Output, field
*Node Output
CF, RF, U
*Element Output, directions=YES
LE, PE, PEEQ, PEMAG, S, SF
*Contact Output
CDISP, CSTRESS
** 
** HISTORY OUTPUT: H-Output-1
** 
*Output, history, variable=PRESELECT
*End Step
