*Heading
** Job name: mb_ss Model name: Model-1
** Generated by: Abaqus/CAE 2023
*Preprint, echo=NO, model=NO, history=NO, contact=NO
**
** PARTS
**
*Part, name=Part-1
*Node
      1,           0.,   221.199997,         7.75
      2,           0.,   211.145462,         7.75
      3,           0.,   201.090912,         7.75
      4,           0.,   191.036362,         7.75
      5,           0.,   180.981812,         7.75
      6,           0.,   170.927277,         7.75
      7,           0.,   160.872726,         7.75
      8,           0.,   150.818176,         7.75
      9,           0.,   140.763641,         7.75
     10,           0.,   130.709091,         7.75
     11,           0.,   120.654549,         7.75
     12,           0.,   110.599998,         7.75
     13,           0.,   100.545456,         7.75
     14,           0.,   90.4909058,         7.75
     15,           0.,   80.4363632,         7.75
     16,           0.,   70.3818207,         7.75
     17,           0.,   60.3272743,         7.75
     18,           0.,    50.272728,         7.75
     19,           0.,   40.2181816,         7.75
     20,           0.,   30.1636372,         7.75
** ... 716 like lines cut
*Element, type=S4R5
  1,  24,  25,   2,   1
  2,  25,  26,   3,   2
  3,  26,  27,   4,   3
  4,  27,  28,   5,   4
  5,  28,  29,   6,   5
  6,  29,  30,   7,   6
  7,  30,  31,   8,   7
  8,  31,  32,   9,   8
  9,  32,  33,  10,   9
 10,  33,  34,  11,  10
 11,  34,  35,  12,  11
 12,  35,  36,  13,  12
 13,  36,  37,  14,  13
 14,  37,  38,  15,  14
 15,  38,  39,  16,  15
 16,  39,  40,  17,  16
 17,  40,  41,  18,  17
 18,  41,  42,  19,  18
 19,  42,  43,  20,  19
 20,  43,  44,  21,  20
** ... 662 like lines cut
*Nset, nset=Set-2, generate
   1,  736,    1
*Elset, elset=Set-2, generate
   1,  682,    1
** Section: shell_5mm
*Shell Section, elset=Set-2, material=alu
5., 5
*End Part
**  
**
** ASSEMBLY
**
*Assembly, name=Assembly
**  
*Instance, name=Part-1-1, part=Part-1
*End Instance
**  
*Nset, nset=Set-1, instance=Part-1-1
   1,   2,   3,   4,   5,   6,   7,   8,   9,  10,  11,  12,  13,  14,  15,  16
  17,  18,  19,  20,  21,  22,  23, 714, 715, 716, 717, 718, 719, 720, 721, 722
 723, 724, 725, 726, 727, 728, 729, 730, 731, 732, 733, 734, 735, 736
*Elset, elset=Set-1, instance=Part-1-1
   1,   2,   3,   4,   5,   6,   7,   8,   9,  10,  11,  12,  13,  14,  15,  16
  17,  18,  19,  20,  21,  22, 661, 662, 663, 664, 665, 666, 667, 668, 669, 670
 671, 672, 673, 674, 675, 676, 677, 678, 679, 680, 681, 682
*Nset, nset=Set-2, instance=Part-1-1
 736,
*Nset, nset=Set-3, instance=Part-1-1
 23,
*Elset, elset=_Surf-1_SNEG, internal, instance=Part-1-1, generate
   1,  682,    1
*Surface, type=ELEMENT, name=Surf-1
_Surf-1_SNEG, SNEG
*End Assembly
** 
** MATERIALS
** 
*Material, name=alu
*Elastic
72000., 0.333
** ----------------------------------------------------------------
** 
** STEP: linear_pertubation
** 
*Step, name=linear_pertubation, nlgeom=NO, perturbation
*Static
** 
** BOUNDARY CONDITIONS
** 
** Name: BC-2-Copy Type: Displacement/Rotation
*Boundary
Set-2, 1, 1
Set-2, 2, 2
** Name: reduce_rotation-Copy Type: Displacement/Rotation
*Boundary
Set-3, 1, 1
** Name: simple_supports-Copy Type: Displacement/Rotation
*Boundary
Set-1, 3, 3
** 
** LOADS
** 
** Name: pressure   Type: Pressure
*Dsload
Surf-1, P, 1.
** 
** OUTPUT REQUESTS
** 
** 
** FIELD OUTPUT: F-Output-2
** 
*Output, field
*Node Output
CF, RF, U
*Element Output, directions=YES
LE, S, SF
** 
** HISTORY OUTPUT: H-Output-2
** 
*Output, history, variable=PRESELECT
*End Step
** ----------------------------------------------------------------
** 
** STEP: load
** 
*Step, name=load, nlgeom=NO
*Static
1., 1., 1e-05, 1.
** 
** BOUNDARY CONDITIONS
** 
** Name: BC-2 Type: Displacement/Rotation
*Boundary
Set-2, 1, 1
Set-2, 2, 2
** Name: reduce_rotation Type: Displacement/Rotation
*Boundary
Set-3, 1, 1
** Name: simple_supports Type: Displacement/Rotation
*Boundary
Set-1, 3, 3
** 
** OUTPUT REQUESTS
** 
*Restart, write, frequency=0
** 
** FIELD OUTPUT: F-Output-1
** 
*Output, field
*Node Output
CF, RF, U
*Element Output, directions=YES
LE, PE, PEEQ, PEMAG, S, SF
*Contact Output
CDISP, CSTRESS
** 
** HISTORY OUTPUT: H-Output-1
** 
*Output, history, variable=PRESELECT
*End Step
